data_

_audit_creation_date      'June 11, 2021'
_audit_creation_method    'Draft CIF file generated with Atomsk'
 
_chemical_name_common             ?
_chemical_melting_point           ?
_chemical_formula_iupac           'Co4 H32 C48 N8 O16'
_chemical_formula_moiety          'Co4 H32 C48 N8 O16'
_chemical_formula_sum             'Co4 H32 C48 N8 O16'
_chemical_formula_weight          1212.557
_chemical_compound_source         ?
_chemical_absolute_configuration  ?
_exptl_crystal_description        'EDIT-ENTRY'
_diffrn_measurement_device_type   'EDIT-ENTRY'
 
_space_group_IT_number            1
_space_group_crystal_system       triclinic
_symmetry_space_group_name_Hall   'P 1'
_symmetry_space_group_name_H-M    'P 1'
 
loop_
_space_group_symop_operation_xyz
'+x,+y,+z'
 
_cell_length_a                    9.8064
_cell_length_b                    10.6685
_cell_length_c                    13.9711
_cell_angle_alpha                 84.6976
_cell_angle_beta                  69.4549
_cell_angle_gamma                 74.7329
_cell_volume                      1192.7681
 
loop_
 _atom_site_label
 _atom_site_type_symbol
 _atom_site_fract_x
 _atom_site_fract_y
 _atom_site_fract_z
Co1  Co  0.373610  0.880120  0.248820
Co2  Co  0.126960  0.383950  0.747920
Co3  Co  0.622430  0.380120  0.751180
Co4  Co  0.874880  0.883950  0.252080
H1  H  0.707200  0.767300  0.125800
H2  H  0.859400  0.639800  0.983400
H3  H  0.482400  0.614600  0.935600
H4  H  0.342300  0.742000  0.080800
H5  H  0.342500  0.490700  0.562200
H6  H  0.346400  0.611900  0.415200
H7  H  0.901300  0.636900  0.489400
H8  H  0.911700  0.511000  0.633600
H9  H  0.197800  0.166900  0.308400
H10  H  0.053600  0.296300  0.451200
H11  H  0.113900  0.982700  0.629600
H12  H  0.244300  0.858100  0.484600
H13  H  0.992700  0.406500  0.986200
H14  H  0.980700  0.282200  0.132600
H15  H  0.271400  0.980200  0.952600
H16  H  0.256400  0.107400  0.811200
H17  H  0.833000  0.267300  0.874200
H18  H  0.842800  0.139800  0.016600
H19  H  0.418000  0.114600  0.064400
H20  H  0.423100  0.242000  0.919200
H21  H  0.904700  0.990700  0.437800
H22  H  0.761600  0.111900  0.584800
H23  H  0.390700  0.136900  0.510600
H24  H  0.545300  0.011000  0.366400
H25  H  0.506200  0.666900  0.691600
H26  H  0.504800  0.796300  0.548800
H27  H  0.743500  0.482700  0.370400
H28  H  0.728900  0.358100  0.515400
H29  H  0.978900  0.906500  0.013800
H30  H  0.113300  0.782200  0.867400
H31  H  0.224000  0.480200  0.047400
H32  H  0.067600  0.607400  0.188800
C1  C  0.661220  0.735300  0.086960
C2  C  0.753190  0.660200  0.001420
C3  C  0.687150  0.615200  0.942300
C4  C  0.531390  0.645100  0.973220
C5  C  0.448810  0.720600  0.060380
C6  C  0.784000  0.533500  0.847800
C7  C  0.252090  0.521000  0.547220
C8  C  0.255140  0.594000  0.459720
C9  C  0.124450  0.640400  0.437900
C10  C  0.992860  0.608300  0.503280
C11  C  0.000410  0.533400  0.588980
C12  C  0.119200  0.726100  0.346000
C13  C  0.178950  0.128500  0.374300
C14  C  0.093490  0.206200  0.459220
C15  C  0.066210  0.151900  0.556180
C16  C  0.127110  0.022000  0.564180
C17  C  0.207390  0.948900  0.477420
C18  C  0.969000  0.233300  0.650600
C19  C  0.047120  0.317900  0.979160
C20  C  0.041410  0.244800  0.067580
C21  C  0.125600  0.116200  0.060000
C22  C  0.210030  0.066500  0.961540
C23  C  0.203320  0.144400  0.877360
C24  C  0.128500  0.032300  0.152200
C25  C  0.748180  0.235300  0.913040
C26  C  0.754610  0.160200  0.998580
C27  C  0.629450  0.115200  0.057700
C28  C  0.504610  0.145100  0.026780
C29  C  0.509190  0.220600  0.939620
C30  C  0.631800  0.033500  0.152200
C31  C  0.799310  0.021000  0.452780
C32  C  0.714860  0.094000  0.540280
C33  C  0.562350  0.140400  0.562100
C34  C  0.496140  0.108300  0.496720
C35  C  0.589390  0.033400  0.411020
C36  C  0.465200  0.226100  0.654000
C37  C  0.553250  0.628500  0.625700
C38  C  0.552710  0.706200  0.540780
C39  C  0.622390  0.651900  0.443820
C40  C  0.691290  0.522000  0.435820
C41  C  0.684810  0.448900  0.522580
C42  C  0.619600  0.733300  0.349400
C43  C  0.026280  0.817900  0.020840
C44  C  0.108990  0.744800  0.932420
C45  C  0.185600  0.616200  0.940000
C46  C  0.171570  0.566500  0.038460
C47  C  0.080680  0.644400  0.122640
C48  C  0.280700  0.532300  0.847800
N1  N  0.512360  0.764700  0.117080
N2  N  0.126630  0.491300  0.611740
N3  N  0.236690  0.999300  0.382220
N4  N  0.125010  0.270500  0.884380
N5  N  0.629440  0.264700  0.882920
N6  N  0.738370  0.991300  0.388260
N7  N  0.618910  0.499300  0.617780
N8  N  0.009390  0.770500  0.115620
O1  O  0.922360  0.503200  0.831880
O2  O  0.715900  0.508800  0.793200
O3  O  0.238970  0.749400  0.285860
O4  O  0.991830  0.767200  0.336740
O5  O  0.025090  0.251200  0.714220
O6  O  0.832340  0.273000  0.658120
O7  O  0.003610  0.022300  0.215780
O8  O  0.255960  0.985400  0.156480
O9  O  0.754240  0.003200  0.168120
O10  O  0.509100  0.008800  0.206800
O11  O  0.524830  0.249400  0.714140
O12  O  0.328570  0.267200  0.663260
O13  O  0.739310  0.751200  0.285780
O14  O  0.490460  0.773000  0.341880
O15  O  0.219390  0.522300  0.784220
O16  O  0.412440  0.485400  0.843520
