data_ACOGAB_cleanP-1
# Symmetrized structure with precision = 1e-10
_cell_length_a                  9.9817
_cell_length_b                  16.6382
_cell_length_c                  17.06747
_cell_angle_alpha               100.544
_cell_angle_beta                107.0026
_cell_angle_gamma               90
_symmetry_space_group_name_H-M  'P-1'
_symmetry_Int_Tables_number     2

loop_
_atom_site_label
_atom_site_type_symbol
_atom_site_occupancy
_atom_site_fract_x
_atom_site_fract_y
_atom_site_fract_z
Cd1 Cd 1.0 0.0000000 0.0000000 0.0000000
Cd2 Cd 1.0 0.0000000 0.5000000 0.0000000
H1 H 1.0 0.1780000 0.1670000 0.0262000
H2 H 1.0 0.9328000 0.1343000 0.1520000
H3 H 1.0 0.0236000 0.2494000 0.2486000
H4 H 1.0 0.2703000 0.2856000 0.1142000
H5 H 1.0 0.4250000 0.5442000 0.3726000
H6 H 1.0 0.3847000 0.4836000 0.2864000
H7 H 1.0 0.5183000 0.4137000 0.4238000
H8 H 1.0 0.5350000 0.3928000 0.3340000
H9 H 1.0 0.4029000 0.4361000 0.5082000
H10 H 1.0 0.2523000 0.4113000 0.5098000
H11 H 1.0 0.1490000 0.5001000 0.4296000
H12 H 1.0 0.2871000 0.5555000 0.4528000
H13 H 1.0 0.9708000 0.5096000 0.2984000
H14 H 1.0 0.6297000 0.3909000 0.1256000
H15 H 1.0 0.7352000 0.4052000 0.0270000
H16 H 1.0 0.0663000 0.5138000 0.1918000
H17 H 1.0 0.2836000 0.3799000 0.2312000
H18 H 1.0 0.6522000 0.4082000 0.2712000
H19 H 1.0 0.1518000 0.3330000 0.9738000
H20 H 1.0 0.7808000 0.3657000 0.8480000
H21 H 1.0 0.7750000 0.2506000 0.7514000
H22 H 1.0 0.1561000 0.2144000 0.8858000
H23 H 1.0 0.0524000 0.9558000 0.6274000
H24 H 1.0 0.0983000 0.0164000 0.7136000
H25 H 1.0 0.0945000 0.0863000 0.5762000
H26 H 1.0 0.2010000 0.1072000 0.6660000
H27 H 1.0 0.8947000 0.0639000 0.4918000
H28 H 1.0 0.7425000 0.0887000 0.4902000
H29 H 1.0 0.7194000 0.9999000 0.5704000
H30 H 1.0 0.8343000 0.9445000 0.5472000
H31 H 1.0 0.6724000 0.9904000 0.7016000
H32 H 1.0 0.5041000 0.1091000 0.8744000
H33 H 1.0 0.7082000 0.0948000 0.9730000
H34 H 1.0 0.8745000 0.9862000 0.8082000
H35 H 1.0 0.0524000 0.1201000 0.7688000
H36 H 1.0 0.3810000 0.0918000 0.7288000
C1 C 1.0 0.1457000 0.1831000 0.0722000
C2 C 1.0 0.0060000 0.1640000 0.1450000
C3 C 1.0 0.0578000 0.2345000 0.2030000
C4 C 1.0 0.2022000 0.2550000 0.1252000
C5 C 1.0 0.1600300 0.2818000 0.1926600
C6 C 1.0 0.1983700 0.3888000 0.3195400
C7 C 1.0 0.4026900 0.4871000 0.3459800
C8 C 1.0 0.5303600 0.4374000 0.3783200
C9 C 1.0 0.3142300 0.4573000 0.5124600
C10 C 1.0 0.2495600 0.4992000 0.4387200
C11 C 1.0 0.7541000 0.4933000 0.3630000
C12 C 1.0 0.9202500 0.4872000 0.2435000
C13 C 1.0 0.7881600 0.4507000 0.2249200
C14 C 1.0 0.7180000 0.4176000 0.1410000
C15 C 1.0 0.7836000 0.4257000 0.0826000
C16 C 1.0 0.9763100 0.4898000 0.1784200
C17 C 1.0 0.0735000 0.3169000 0.9278000
C18 C 1.0 0.8610000 0.3360000 0.8550000
C19 C 1.0 0.8548000 0.2655000 0.7970000
C20 C 1.0 0.0770000 0.2450000 0.8748000
C21 C 1.0 0.9673700 0.2182000 0.8073400
C22 C 1.0 0.8788300 0.1112000 0.6804600
C23 C 1.0 0.0567100 0.0129000 0.6540200
C24 C 1.0 0.1520400 0.0626000 0.6216800
C25 C 1.0 0.8017700 0.0427000 0.4875400
C26 C 1.0 0.8108400 0.0008000 0.5612800
C27 C 1.0 0.3911000 0.0067000 0.6370000
C28 C 1.0 0.6767500 0.0128000 0.7565000
C29 C 1.0 0.5632400 0.0493000 0.7750800
C30 C 1.0 0.5770000 0.0824000 0.8590000
C31 C 1.0 0.7010000 0.0743000 0.9174000
C32 C 1.0 0.7978900 0.0102000 0.8215800
Br1 Br 1.0 0.1838400 0.0284100 0.9035600
Br2 Br 1.0 0.2802800 0.4715900 0.0964400
N1 N 1.0 0.0502900 0.1352000 0.0813800
N2 N 1.0 0.2756500 0.4594000 0.3613000
N3 N 1.0 0.2230600 0.3542000 0.2459200
N4 N 1.0 0.9109300 0.4607000 0.0992600
N5 N 1.0 0.6619300 0.4872000 0.4072600
N6 N 1.0 0.7200900 0.4447000 0.2843800
N7 N 1.0 0.9689100 0.3648000 0.9186200
N8 N 1.0 0.9143500 0.0406000 0.6387000
N9 N 1.0 0.9771400 0.1458000 0.7540800
N10 N 1.0 0.8116700 0.0393000 0.9007400
N11 N 1.0 0.2546700 0.0128000 0.5927400
N12 N 1.0 0.4357100 0.0553000 0.7156200
O1 O 1.0 0.1126500 0.3585000 0.3453000
O2 O 1.0 0.8578600 0.5400000 0.3905200
O3 O 1.0 0.7673500 0.1415000 0.6547000
O4 O 1.0 0.4673400 0.9600000 0.6094800
