data_ADABIS_cleanP-1
# Symmetrized structure with precision = 1e-10
_cell_length_a                  9.2553
_cell_length_b                  9.3537
_cell_length_c                  13.8735
_cell_angle_alpha               109.7005
_cell_angle_beta                101.758
_cell_angle_gamma               90
_symmetry_space_group_name_H-M  'P-1'
_symmetry_Int_Tables_number     2

loop_
_atom_site_label
_atom_site_type_symbol
_atom_site_occupancy
_atom_site_fract_x
_atom_site_fract_y
_atom_site_fract_z
Cu1 Cu 1.0 0.0386000 0.3643000 0.3846000
Cu2 Cu 1.0 0.4614000 0.9797000 0.6154000
H1 H 1.0 0.8233400 0.2499100 0.1807200
H2 H 1.0 0.6818400 0.3255400 0.0486400
H3 H 1.0 0.8179200 0.7663000 0.2337600
H4 H 1.0 0.9550500 0.6759800 0.3598000
H5 H 1.0 0.5890700 0.5274000 0.9925800
H6 H 1.0 0.5846500 0.6832200 0.0764800
H7 H 1.0 0.8090100 0.7818900 0.0467400
H8 H 1.0 0.6766600 0.0691900 0.8192800
H9 H 1.0 0.8181600 0.2769000 0.9513600
H10 H 1.0 0.6820800 0.5325400 0.7662400
H11 H 1.0 0.5449500 0.3161800 0.6402000
H12 H 1.0 0.9109300 0.5348200 0.0074200
H13 H 1.0 0.9153500 0.6067400 0.9235200
H14 H 1.0 0.6909900 0.7351500 0.9532600
C1 C 1.0 0.7696000 0.0448000 0.3016000
C2 C 1.0 0.7750000 0.1895000 0.3920000
C3 C 1.0 0.8219000 0.3568000 0.1914000
C4 C 1.0 0.7372000 0.3996000 0.1120000
C5 C 1.0 0.7363000 0.5547000 0.1286000
C6 C 1.0 0.8174000 0.6589000 0.2214000
C7 C 1.0 0.8988000 0.6041000 0.2958000
C8 C 1.0 0.6468700 0.6100000 0.0460000
C9 C 1.0 0.7304000 0.7432000 0.6984000
C10 C 1.0 0.7250000 0.7975000 0.6080000
C11 C 1.0 0.6781000 0.1654000 0.8086000
C12 C 1.0 0.7628000 0.2876000 0.8880000
C13 C 1.0 0.7637000 0.4261000 0.8714000
C14 C 1.0 0.6826000 0.4375000 0.7786000
C15 C 1.0 0.6012000 0.3083000 0.7042000
C16 C 1.0 0.8531300 0.5640000 0.9540000
C17 C 1.0 0.7500000 0.6800000 0.0000000
N1 N 1.0 0.6758000 0.2044000 0.4508000
N2 N 1.0 0.7064000 0.3427000 0.5254000
N3 N 1.0 0.8228000 0.4079000 0.5098000
N4 N 1.0 0.8660000 0.3135000 0.4270000
N5 N 1.0 0.9020000 0.4546000 0.2820000
N6 N 1.0 0.8242000 0.7536000 0.5492000
N7 N 1.0 0.7936000 0.8173000 0.4746000
N8 N 1.0 0.6772000 0.8981000 0.4902000
N9 N 1.0 0.6340000 0.8865000 0.5730000
N10 N 1.0 0.5980000 0.1726000 0.7180000
O1 O 1.0 0.8664000 0.0222000 0.2504000
O2 O 1.0 0.6550000 0.9595000 0.2890000
O3 O 1.0 0.6336000 0.7718000 0.7496000
O4 O 1.0 0.8450000 0.6705000 0.7110000
