data_ADOGEH_cleanFm-3m
# Symmetrized structure with precision = 1e-10
_cell_length_a                  26.3336
_cell_length_b                  26.3336
_cell_length_c                  26.3336
_cell_angle_alpha               90
_cell_angle_beta                90
_cell_angle_gamma               90
_symmetry_space_group_name_H-M  'Fm-3m'
_symmetry_Int_Tables_number     225

loop_
_atom_site_label
_atom_site_type_symbol
_atom_site_occupancy
_atom_site_fract_x
_atom_site_fract_y
_atom_site_fract_z
O1 O 1.0 0.8166000 0.9477000 0.7431000
H1 H 1.0 0.7434000 0.8761000 0.5839000
Cu1 Cu 1.0 0.7853000 0.0000000 0.7853000
C1 C 1.0 0.7968000 0.9308000 0.7032000
C2 C 1.0 0.8226000 0.8878000 0.6774000
C3 C 1.0 0.8013000 0.8665000 0.6335000
H2 H 1.0 0.7731000 0.8815000 0.6185000
N1 N 1.0 0.7577000 0.8909000 0.6091000
