data_

_audit_creation_date      'June 11, 2021'
_audit_creation_method    'Draft CIF file generated with Atomsk'
 
_chemical_name_common             ?
_chemical_melting_point           ?
_chemical_formula_iupac           'O128 Zr24 C96 H64'
_chemical_formula_moiety          'O128 Zr24 C96 H64'
_chemical_formula_sum             'O128 Zr24 C96 H64'
_chemical_formula_weight          5454.816
_chemical_compound_source         ?
_chemical_absolute_configuration  ?
_exptl_crystal_description        'EDIT-ENTRY'
_diffrn_measurement_device_type   'EDIT-ENTRY'
 
_space_group_IT_number            1
_space_group_crystal_system       cubic
_symmetry_space_group_name_Hall   'P 1'
_symmetry_space_group_name_H-M    'P 1'
 
loop_
_space_group_symop_operation_xyz
'+x,+y,+z'
 
_cell_length_a                    17.9309
_cell_length_b                    17.9309
_cell_length_c                    17.9309
_cell_angle_alpha                 90.0000
_cell_angle_beta                  90.0000
_cell_angle_gamma                 90.0000
_cell_volume                      5765.0923
 
loop_
 _atom_site_label
 _atom_site_type_symbol
 _atom_site_fract_x
 _atom_site_fract_y
 _atom_site_fract_z
 _atom_site_occupancy
 _atom_site_thermal_displace_type
 _atom_site_B_iso_or_equiv
O1  O  0.800270  0.089280  0.989900 1.000000 Biso 0.000000
O2  O  0.187400  0.115810  0.004210 1.000000 Biso 0.000000
O3  O  0.986430  0.200150  0.089680 1.000000 Biso 0.000000
O4  O  0.995790  0.187400  0.884190 1.000000 Biso 0.000000
O5  O  0.009540  0.090170  0.800640 1.000000 Biso 0.000000
O6  O  0.987010  0.116230  0.187440 1.000000 Biso 0.000000
O7  O  0.090170  0.199360  0.990450 1.000000 Biso 0.000000
O8  O  0.884190  0.187050  0.991660 1.000000 Biso 0.000000
Zr1  Zr  0.991720  0.132650  0.991520 1.000000 Biso 0.000000
O9  O  0.067570  0.067570  0.932430 1.000000 Biso 0.000000
O10  O  0.923490  0.067280  0.058750 1.000000 Biso 0.000000
C1  C  0.816130  0.160270  0.992480 1.000000 Biso 0.000000
C2  C  0.160930  0.183550  0.996160 1.000000 Biso 0.000000
C3  C  0.986800  0.184350  0.160750 1.000000 Biso 0.000000
C4  C  0.003840  0.160930  0.816450 1.000000 Biso 0.000000
H1  H  0.088560  0.109520  0.098400 1.000000 Biso 0.000000
O11  O  0.059010  0.075380  0.066810 1.000000 Biso 0.000000
H2  H  0.901600  0.088560  0.890490 1.000000 Biso 0.000000
O12  O  0.933190  0.059010  0.924620 1.000000 Biso 0.000000
O13  O  0.200150  0.910320  0.013570 1.000000 Biso 0.000000
O14  O  0.813750  0.882990  0.991480 1.000000 Biso 0.000000
O15  O  0.089280  0.010100  0.199730 1.000000 Biso 0.000000
O16  O  0.115810  0.995790  0.812600 1.000000 Biso 0.000000
O17  O  0.910320  0.986430  0.799850 1.000000 Biso 0.000000
O18  O  0.882990  0.008520  0.186250 1.000000 Biso 0.000000
O19  O  0.008520  0.813750  0.117010 1.000000 Biso 0.000000
O20  O  0.010100  0.800270  0.910720 1.000000 Biso 0.000000
O21  O  0.993610  0.911100  0.200210 1.000000 Biso 0.000000
O22  O  0.008340  0.884190  0.812950 1.000000 Biso 0.000000
O23  O  0.187050  0.008340  0.115810 1.000000 Biso 0.000000
O24  O  0.799790  0.993610  0.088900 1.000000 Biso 0.000000
O25  O  0.812560  0.987010  0.883770 1.000000 Biso 0.000000
O26  O  0.199360  0.009540  0.909830 1.000000 Biso 0.000000
O27  O  0.116230  0.812560  0.012990 1.000000 Biso 0.000000
O28  O  0.911100  0.799790  0.006400 1.000000 Biso 0.000000
Zr2  Zr  0.132650  0.008480  0.008280 1.000000 Biso 0.000000
Zr3  Zr  0.867450  0.990910  0.991100 1.000000 Biso 0.000000
Zr4  Zr  0.990910  0.008900  0.132550 1.000000 Biso 0.000000
Zr5  Zr  0.008480  0.991720  0.867350 1.000000 Biso 0.000000
Zr6  Zr  0.008900  0.867450  0.009090 1.000000 Biso 0.000000
O29  O  0.941250  0.923490  0.932720 1.000000 Biso 0.000000
O30  O  0.067280  0.941250  0.076510 1.000000 Biso 0.000000
C5  C  0.184350  0.839250  0.013200 1.000000 Biso 0.000000
C6  C  0.840460  0.815250  0.998580 1.000000 Biso 0.000000
C7  C  0.160270  0.007520  0.183870 1.000000 Biso 0.000000
C8  C  0.183550  0.003840  0.839070 1.000000 Biso 0.000000
C9  C  0.839250  0.986800  0.815650 1.000000 Biso 0.000000
C10  C  0.815250  0.001420  0.159540 1.000000 Biso 0.000000
C11  C  0.001420  0.840460  0.184760 1.000000 Biso 0.000000
C12  C  0.007520  0.816130  0.839730 1.000000 Biso 0.000000
H3  H  0.901180  0.901180  0.098820 1.000000 Biso 0.000000
O31  O  0.932990  0.932990  0.067010 1.000000 Biso 0.000000
H4  H  0.109510  0.901600  0.911440 1.000000 Biso 0.000000
O32  O  0.075380  0.933190  0.940990 1.000000 Biso 0.000000
O33  O  0.300270  0.589280  0.989900 1.000000 Biso 0.000000
O34  O  0.687400  0.615810  0.004210 1.000000 Biso 0.000000
O35  O  0.486430  0.700150  0.089680 1.000000 Biso 0.000000
O36  O  0.495790  0.687400  0.884190 1.000000 Biso 0.000000
O37  O  0.509540  0.590170  0.800640 1.000000 Biso 0.000000
O38  O  0.487010  0.616230  0.187440 1.000000 Biso 0.000000
O39  O  0.590170  0.699360  0.990450 1.000000 Biso 0.000000
O40  O  0.384190  0.687050  0.991660 1.000000 Biso 0.000000
Zr7  Zr  0.491720  0.632650  0.991520 1.000000 Biso 0.000000
O41  O  0.567570  0.567570  0.932430 1.000000 Biso 0.000000
O42  O  0.423490  0.567280  0.058750 1.000000 Biso 0.000000
C13  C  0.316130  0.660270  0.992480 1.000000 Biso 0.000000
C14  C  0.660930  0.683550  0.996160 1.000000 Biso 0.000000
C15  C  0.486800  0.684350  0.160750 1.000000 Biso 0.000000
C16  C  0.503840  0.660930  0.816450 1.000000 Biso 0.000000
H5  H  0.588560  0.609520  0.098400 1.000000 Biso 0.000000
O43  O  0.559010  0.575380  0.066810 1.000000 Biso 0.000000
H6  H  0.401600  0.588560  0.890490 1.000000 Biso 0.000000
O44  O  0.433190  0.559010  0.924620 1.000000 Biso 0.000000
O45  O  0.700150  0.410320  0.013570 1.000000 Biso 0.000000
O46  O  0.313750  0.382990  0.991480 1.000000 Biso 0.000000
O47  O  0.589280  0.510100  0.199730 1.000000 Biso 0.000000
O48  O  0.615810  0.495790  0.812600 1.000000 Biso 0.000000
O49  O  0.410320  0.486430  0.799850 1.000000 Biso 0.000000
O50  O  0.382990  0.508520  0.186250 1.000000 Biso 0.000000
O51  O  0.508520  0.313750  0.117010 1.000000 Biso 0.000000
O52  O  0.510100  0.300270  0.910720 1.000000 Biso 0.000000
O53  O  0.493610  0.411100  0.200210 1.000000 Biso 0.000000
O54  O  0.508340  0.384190  0.812950 1.000000 Biso 0.000000
O55  O  0.687050  0.508340  0.115810 1.000000 Biso 0.000000
O56  O  0.299790  0.493610  0.088900 1.000000 Biso 0.000000
O57  O  0.312560  0.487010  0.883770 1.000000 Biso 0.000000
O58  O  0.699360  0.509540  0.909830 1.000000 Biso 0.000000
O59  O  0.616230  0.312560  0.012990 1.000000 Biso 0.000000
O60  O  0.411100  0.299790  0.006400 1.000000 Biso 0.000000
Zr8  Zr  0.632650  0.508480  0.008280 1.000000 Biso 0.000000
Zr9  Zr  0.367450  0.490910  0.991100 1.000000 Biso 0.000000
Zr10  Zr  0.490910  0.508900  0.132550 1.000000 Biso 0.000000
Zr11  Zr  0.508480  0.491720  0.867350 1.000000 Biso 0.000000
Zr12  Zr  0.508900  0.367450  0.009090 1.000000 Biso 0.000000
O61  O  0.441250  0.423490  0.932720 1.000000 Biso 0.000000
O62  O  0.567280  0.441250  0.076510 1.000000 Biso 0.000000
C17  C  0.684350  0.339250  0.013200 1.000000 Biso 0.000000
C18  C  0.340460  0.315250  0.998580 1.000000 Biso 0.000000
C19  C  0.660270  0.507520  0.183870 1.000000 Biso 0.000000
C20  C  0.683550  0.503840  0.839070 1.000000 Biso 0.000000
C21  C  0.339250  0.486800  0.815650 1.000000 Biso 0.000000
C22  C  0.315250  0.501420  0.159540 1.000000 Biso 0.000000
C23  C  0.501420  0.340460  0.184760 1.000000 Biso 0.000000
C24  C  0.507520  0.316130  0.839730 1.000000 Biso 0.000000
H7  H  0.401180  0.401180  0.098820 1.000000 Biso 0.000000
O63  O  0.432990  0.432990  0.067010 1.000000 Biso 0.000000
H8  H  0.609510  0.401600  0.911440 1.000000 Biso 0.000000
O64  O  0.575380  0.433190  0.940990 1.000000 Biso 0.000000
O65  O  0.800270  0.589280  0.489900 1.000000 Biso 0.000000
O66  O  0.187400  0.615810  0.504210 1.000000 Biso 0.000000
O67  O  0.986430  0.700150  0.589680 1.000000 Biso 0.000000
O68  O  0.995790  0.687400  0.384190 1.000000 Biso 0.000000
O69  O  0.009540  0.590170  0.300640 1.000000 Biso 0.000000
O70  O  0.987010  0.616230  0.687440 1.000000 Biso 0.000000
O71  O  0.090170  0.699360  0.490460 1.000000 Biso 0.000000
O72  O  0.884190  0.687050  0.491660 1.000000 Biso 0.000000
Zr13  Zr  0.991720  0.632650  0.491520 1.000000 Biso 0.000000
O73  O  0.067570  0.567570  0.432430 1.000000 Biso 0.000000
O74  O  0.923490  0.567280  0.558750 1.000000 Biso 0.000000
C25  C  0.816130  0.660270  0.492480 1.000000 Biso 0.000000
C26  C  0.160930  0.683550  0.496160 1.000000 Biso 0.000000
C27  C  0.986800  0.684350  0.660750 1.000000 Biso 0.000000
C28  C  0.003840  0.660930  0.316450 1.000000 Biso 0.000000
H9  H  0.088560  0.609510  0.598400 1.000000 Biso 0.000000
O75  O  0.059010  0.575380  0.566810 1.000000 Biso 0.000000
H10  H  0.901600  0.588560  0.390490 1.000000 Biso 0.000000
O76  O  0.933190  0.559010  0.424620 1.000000 Biso 0.000000
O77  O  0.200150  0.410320  0.513570 1.000000 Biso 0.000000
O78  O  0.813750  0.382990  0.491480 1.000000 Biso 0.000000
O79  O  0.089280  0.510100  0.699730 1.000000 Biso 0.000000
O80  O  0.115810  0.495790  0.312600 1.000000 Biso 0.000000
O81  O  0.910320  0.486430  0.299850 1.000000 Biso 0.000000
O82  O  0.882990  0.508520  0.686250 1.000000 Biso 0.000000
O83  O  0.008520  0.313750  0.617010 1.000000 Biso 0.000000
O84  O  0.010100  0.300270  0.410720 1.000000 Biso 0.000000
O85  O  0.993600  0.411100  0.700210 1.000000 Biso 0.000000
O86  O  0.008340  0.384190  0.312950 1.000000 Biso 0.000000
O87  O  0.187050  0.508340  0.615810 1.000000 Biso 0.000000
O88  O  0.799790  0.493600  0.588900 1.000000 Biso 0.000000
O89  O  0.812560  0.487010  0.383770 1.000000 Biso 0.000000
O90  O  0.199360  0.509540  0.409830 1.000000 Biso 0.000000
O91  O  0.116230  0.312560  0.512990 1.000000 Biso 0.000000
O92  O  0.911100  0.299790  0.506390 1.000000 Biso 0.000000
Zr14  Zr  0.132650  0.508480  0.508280 1.000000 Biso 0.000000
Zr15  Zr  0.867450  0.490910  0.491100 1.000000 Biso 0.000000
Zr16  Zr  0.990910  0.508900  0.632550 1.000000 Biso 0.000000
Zr17  Zr  0.008480  0.491720  0.367350 1.000000 Biso 0.000000
Zr18  Zr  0.008900  0.367450  0.509090 1.000000 Biso 0.000000
O93  O  0.941250  0.423490  0.432720 1.000000 Biso 0.000000
O94  O  0.067280  0.441250  0.576510 1.000000 Biso 0.000000
C29  C  0.184350  0.339250  0.513200 1.000000 Biso 0.000000
C30  C  0.840460  0.315250  0.498580 1.000000 Biso 0.000000
C31  C  0.160270  0.507520  0.683870 1.000000 Biso 0.000000
C32  C  0.183550  0.503840  0.339070 1.000000 Biso 0.000000
C33  C  0.839250  0.486800  0.315650 1.000000 Biso 0.000000
C34  C  0.815240  0.501420  0.659540 1.000000 Biso 0.000000
C35  C  0.001420  0.340460  0.684750 1.000000 Biso 0.000000
C36  C  0.007520  0.316130  0.339730 1.000000 Biso 0.000000
H11  H  0.901180  0.401180  0.598820 1.000000 Biso 0.000000
O95  O  0.932990  0.432990  0.567010 1.000000 Biso 0.000000
H12  H  0.109520  0.401600  0.411440 1.000000 Biso 0.000000
O96  O  0.075380  0.433190  0.440990 1.000000 Biso 0.000000
O97  O  0.300270  0.089280  0.489900 1.000000 Biso 0.000000
O98  O  0.687400  0.115810  0.504210 1.000000 Biso 0.000000
O99  O  0.486430  0.200150  0.589680 1.000000 Biso 0.000000
O100  O  0.495790  0.187400  0.384190 1.000000 Biso 0.000000
O101  O  0.509540  0.090170  0.300640 1.000000 Biso 0.000000
O102  O  0.487010  0.116230  0.687440 1.000000 Biso 0.000000
O103  O  0.590170  0.199360  0.490460 1.000000 Biso 0.000000
O104  O  0.384190  0.187050  0.491660 1.000000 Biso 0.000000
Zr19  Zr  0.491720  0.132650  0.491520 1.000000 Biso 0.000000
O105  O  0.567570  0.067570  0.432430 1.000000 Biso 0.000000
O106  O  0.423490  0.067280  0.558750 1.000000 Biso 0.000000
C37  C  0.316130  0.160270  0.492480 1.000000 Biso 0.000000
C38  C  0.660930  0.183550  0.496160 1.000000 Biso 0.000000
C39  C  0.486800  0.184350  0.660750 1.000000 Biso 0.000000
C40  C  0.503840  0.160930  0.316450 1.000000 Biso 0.000000
H13  H  0.588560  0.109510  0.598400 1.000000 Biso 0.000000
O107  O  0.559010  0.075380  0.566810 1.000000 Biso 0.000000
H14  H  0.401600  0.088560  0.390490 1.000000 Biso 0.000000
O108  O  0.433190  0.059010  0.424620 1.000000 Biso 0.000000
O109  O  0.700150  0.910320  0.513570 1.000000 Biso 0.000000
O110  O  0.313750  0.882990  0.491480 1.000000 Biso 0.000000
O111  O  0.589280  0.010100  0.699730 1.000000 Biso 0.000000
O112  O  0.615810  0.995790  0.312600 1.000000 Biso 0.000000
O113  O  0.410320  0.986430  0.299850 1.000000 Biso 0.000000
O114  O  0.382990  0.008520  0.686250 1.000000 Biso 0.000000
O115  O  0.508520  0.813750  0.617010 1.000000 Biso 0.000000
O116  O  0.510100  0.800270  0.410720 1.000000 Biso 0.000000
O117  O  0.493600  0.911100  0.700210 1.000000 Biso 0.000000
O118  O  0.508340  0.884190  0.312950 1.000000 Biso 0.000000
O119  O  0.687050  0.008340  0.615810 1.000000 Biso 0.000000
O120  O  0.299790  0.993600  0.588900 1.000000 Biso 0.000000
O121  O  0.312560  0.987010  0.383770 1.000000 Biso 0.000000
O122  O  0.699360  0.009540  0.409830 1.000000 Biso 0.000000
O123  O  0.616230  0.812560  0.512990 1.000000 Biso 0.000000
O124  O  0.411100  0.799790  0.506390 1.000000 Biso 0.000000
Zr20  Zr  0.632650  0.008480  0.508280 1.000000 Biso 0.000000
Zr21  Zr  0.367450  0.990910  0.491100 1.000000 Biso 0.000000
Zr22  Zr  0.490910  0.008900  0.632550 1.000000 Biso 0.000000
Zr23  Zr  0.508480  0.991720  0.367350 1.000000 Biso 0.000000
Zr24  Zr  0.508900  0.867450  0.509090 1.000000 Biso 0.000000
O125  O  0.441250  0.923490  0.432720 1.000000 Biso 0.000000
O126  O  0.567280  0.941250  0.576510 1.000000 Biso 0.000000
C41  C  0.684350  0.839250  0.513200 1.000000 Biso 0.000000
C42  C  0.340460  0.815250  0.498580 1.000000 Biso 0.000000
C43  C  0.660270  0.007520  0.683870 1.000000 Biso 0.000000
C44  C  0.683550  0.003840  0.339070 1.000000 Biso 0.000000
C45  C  0.339250  0.986800  0.315650 1.000000 Biso 0.000000
C46  C  0.315240  0.001420  0.659540 1.000000 Biso 0.000000
C47  C  0.501420  0.840460  0.684750 1.000000 Biso 0.000000
C48  C  0.507520  0.816130  0.339730 1.000000 Biso 0.000000
H15  H  0.401180  0.901180  0.598820 1.000000 Biso 0.000000
O127  O  0.432990  0.932990  0.567010 1.000000 Biso 0.000000
H16  H  0.609520  0.901600  0.411440 1.000000 Biso 0.000000
O128  O  0.575380  0.933190  0.440990 1.000000 Biso 0.000000
C49  C  0.213110  0.250410  0.994000 1.000000 Biso 0.000000
C50  C  0.288490  0.248180  0.999240 1.000000 Biso 0.000000
H17  H  0.187150  0.304650  0.988170 1.000000 Biso 0.000000
H18  H  0.314480  0.193970  0.005160 1.000000 Biso 0.000000
C51  C  0.213110  0.750410  0.494000 1.000000 Biso 0.000000
C52  C  0.288490  0.748180  0.499240 1.000000 Biso 0.000000
H19  H  0.187150  0.804650  0.488180 1.000000 Biso 0.000000
H20  H  0.314480  0.693970  0.505160 1.000000 Biso 0.000000
C53  C  0.788490  0.748180  0.999240 1.000000 Biso 0.000000
C54  C  0.713110  0.750410  0.994000 1.000000 Biso 0.000000
H21  H  0.814480  0.693970  0.005160 1.000000 Biso 0.000000
H22  H  0.687150  0.804650  0.988170 1.000000 Biso 0.000000
C55  C  0.788490  0.248180  0.499240 1.000000 Biso 0.000000
C56  C  0.713110  0.250410  0.494000 1.000000 Biso 0.000000
H23  H  0.814480  0.193970  0.505160 1.000000 Biso 0.000000
H24  H  0.687150  0.304650  0.488180 1.000000 Biso 0.000000
C57  C  0.749160  0.212490  0.996630 1.000000 Biso 0.000000
C58  C  0.751320  0.286930  0.010600 1.000000 Biso 0.000000
H25  H  0.694840  0.187160  0.989100 1.000000 Biso 0.000000
H26  H  0.805630  0.312310  0.018040 1.000000 Biso 0.000000
C59  C  0.749160  0.712490  0.496630 1.000000 Biso 0.000000
C60  C  0.751320  0.786930  0.510600 1.000000 Biso 0.000000
H27  H  0.694840  0.687160  0.489100 1.000000 Biso 0.000000
H28  H  0.805630  0.812310  0.518040 1.000000 Biso 0.000000
C61  C  0.251320  0.286930  0.510600 1.000000 Biso 0.000000
C62  C  0.249160  0.212490  0.496630 1.000000 Biso 0.000000
H29  H  0.305630  0.312310  0.518040 1.000000 Biso 0.000000
H30  H  0.194840  0.187160  0.489100 1.000000 Biso 0.000000
C63  C  0.251320  0.786930  0.010600 1.000000 Biso 0.000000
C64  C  0.249160  0.712490  0.996630 1.000000 Biso 0.000000
H31  H  0.305630  0.812310  0.018040 1.000000 Biso 0.000000
H32  H  0.194840  0.687160  0.989100 1.000000 Biso 0.000000
C65  C  0.989400  0.251320  0.213070 1.000000 Biso 0.000000
C66  C  0.003370  0.249160  0.287510 1.000000 Biso 0.000000
H33  H  0.981960  0.305630  0.187690 1.000000 Biso 0.000000
H34  H  0.010900  0.194840  0.312840 1.000000 Biso 0.000000
C67  C  0.503370  0.249160  0.787510 1.000000 Biso 0.000000
C68  C  0.489400  0.251320  0.713070 1.000000 Biso 0.000000
H35  H  0.510900  0.194840  0.812840 1.000000 Biso 0.000000
H36  H  0.481960  0.305630  0.687690 1.000000 Biso 0.000000
C69  C  0.003370  0.749160  0.787510 1.000000 Biso 0.000000
C70  C  0.989400  0.751320  0.713070 1.000000 Biso 0.000000
H37  H  0.010900  0.694840  0.812840 1.000000 Biso 0.000000
H38  H  0.981960  0.805630  0.687690 1.000000 Biso 0.000000
C71  C  0.489400  0.751320  0.213070 1.000000 Biso 0.000000
C72  C  0.503370  0.749160  0.287510 1.000000 Biso 0.000000
H39  H  0.481960  0.805630  0.187690 1.000000 Biso 0.000000
H40  H  0.510900  0.694840  0.312840 1.000000 Biso 0.000000
C73  C  0.000760  0.788490  0.251820 1.000000 Biso 0.000000
C74  C  0.006000  0.713110  0.249590 1.000000 Biso 0.000000
H41  H  0.994840  0.814480  0.306030 1.000000 Biso 0.000000
H42  H  0.011830  0.687150  0.195350 1.000000 Biso 0.000000
C75  C  0.506000  0.713110  0.749590 1.000000 Biso 0.000000
C76  C  0.500760  0.788490  0.751820 1.000000 Biso 0.000000
H43  H  0.511820  0.687150  0.695350 1.000000 Biso 0.000000
H44  H  0.494840  0.814480  0.806030 1.000000 Biso 0.000000
C77  C  0.500760  0.288490  0.251820 1.000000 Biso 0.000000
C78  C  0.506000  0.213110  0.249590 1.000000 Biso 0.000000
H45  H  0.494840  0.314480  0.306030 1.000000 Biso 0.000000
H46  H  0.511830  0.187150  0.195350 1.000000 Biso 0.000000
C79  C  0.006000  0.213110  0.749590 1.000000 Biso 0.000000
C80  C  0.000760  0.288490  0.751820 1.000000 Biso 0.000000
H47  H  0.011820  0.187150  0.695350 1.000000 Biso 0.000000
H48  H  0.994840  0.314480  0.806030 1.000000 Biso 0.000000
C81  C  0.212490  0.003370  0.250840 1.000000 Biso 0.000000
C82  C  0.286930  0.989400  0.248680 1.000000 Biso 0.000000
H49  H  0.187160  0.010900  0.305160 1.000000 Biso 0.000000
H50  H  0.312310  0.981960  0.194370 1.000000 Biso 0.000000
C83  C  0.286930  0.489400  0.748680 1.000000 Biso 0.000000
C84  C  0.212490  0.503370  0.750840 1.000000 Biso 0.000000
H51  H  0.312310  0.481960  0.694370 1.000000 Biso 0.000000
H52  H  0.187160  0.510900  0.805160 1.000000 Biso 0.000000
C85  C  0.786930  0.989400  0.748680 1.000000 Biso 0.000000
C86  C  0.712490  0.003370  0.750840 1.000000 Biso 0.000000
H53  H  0.812310  0.981960  0.694370 1.000000 Biso 0.000000
H54  H  0.687160  0.010900  0.805160 1.000000 Biso 0.000000
C87  C  0.712490  0.503370  0.250840 1.000000 Biso 0.000000
C88  C  0.786930  0.489400  0.248680 1.000000 Biso 0.000000
H55  H  0.687160  0.510900  0.305160 1.000000 Biso 0.000000
H56  H  0.812310  0.481960  0.194370 1.000000 Biso 0.000000
C89  C  0.250410  0.006000  0.786890 1.000000 Biso 0.000000
C90  C  0.248180  0.000760  0.711510 1.000000 Biso 0.000000
H57  H  0.304650  0.011820  0.812850 1.000000 Biso 0.000000
H58  H  0.193970  0.994840  0.685520 1.000000 Biso 0.000000
C91  C  0.248180  0.500760  0.211510 1.000000 Biso 0.000000
C92  C  0.250410  0.506000  0.286890 1.000000 Biso 0.000000
H59  H  0.193970  0.494840  0.185520 1.000000 Biso 0.000000
H60  H  0.304650  0.511820  0.312850 1.000000 Biso 0.000000
C93  C  0.748180  0.000760  0.211510 1.000000 Biso 0.000000
C94  C  0.750410  0.006000  0.286890 1.000000 Biso 0.000000
H61  H  0.693970  0.994840  0.185520 1.000000 Biso 0.000000
H62  H  0.804650  0.011820  0.312850 1.000000 Biso 0.000000
C95  C  0.750410  0.506000  0.786890 1.000000 Biso 0.000000
C96  C  0.748180  0.500760  0.711510 1.000000 Biso 0.000000
H63  H  0.804650  0.511820  0.812850 1.000000 Biso 0.000000
H64  H  0.693970  0.494840  0.685520 1.000000 Biso 0.000000
