data_CURQEN_cleanP2_1/c
# Symmetrized structure with precision = 1e-10
_cell_length_a                  10.334
_cell_length_b                  15.9714
_cell_length_c                  26.78351
_cell_angle_alpha               90
_cell_angle_beta                109.3794
_cell_angle_gamma               90
_symmetry_space_group_name_H-M  'P2_1/c'
_symmetry_Int_Tables_number     14

loop_
_atom_site_label
_atom_site_type_symbol
_atom_site_occupancy
_atom_site_fract_x
_atom_site_fract_y
_atom_site_fract_z
Cu1 Cu 1.0 0.9271400 0.7857100 0.1667600
N1 N 1.0 0.1451800 0.0097000 0.0763800
N2 N 1.0 0.1401800 0.9290000 0.9752800
C1 C 1.0 0.1280300 0.0534000 0.1179300
C2 C 1.0 0.2521000 0.0449000 0.1626000
H1 H 1.0 0.2688000 0.0683000 0.1968000
C3 C 1.0 0.3409000 0.9975000 0.1472000
H2 H 1.0 0.4308000 0.9817000 0.1686000
C4 C 1.0 0.2740400 0.9752000 0.0923400
C5 C 1.0 0.3307500 0.9282000 0.0601500
C6 C 1.0 0.2681700 0.9062000 0.0068700
C7 C 1.0 0.3255000 0.8523000 0.9758000
H3 H 1.0 0.4140000 0.8272000 0.9877000
C8 C 1.0 0.2318000 0.8441000 0.9276000
H4 H 1.0 0.2417000 0.8122000 0.8991000
C9 C 1.0 0.1130400 0.8925000 0.9265400
C10 C 1.0 0.0102000 0.0990000 0.1165000
C11 C 1.0 0.0204400 0.1453000 0.1662400
C12 C 1.0 0.9358900 0.1255000 0.1957900
H5 H 1.0 0.8646000 0.0854000 0.1832000
C13 C 1.0 0.9579000 0.1654000 0.2437000
H6 H 1.0 0.9017000 0.1504000 0.2640000
N3 N 1.0 0.0540900 0.2242000 0.2629900
C14 C 1.0 0.1301000 0.2465000 0.2324000
H7 H 1.0 0.1955000 0.2901000 0.2444000
C15 C 1.0 0.1165000 0.2087000 0.1846000
H8 H 1.0 0.1722000 0.2258000 0.1645000
C16 C 1.0 0.4739000 0.8966000 0.0865000
C17 C 1.0 0.5844000 0.9269000 0.0732000
H9 H 1.0 0.5708000 0.9701000 0.0476000
C18 C 1.0 0.7142000 0.8942000 0.0974000
H10 H 1.0 0.7882000 0.9158000 0.0877000
N4 N 1.0 0.7397900 0.8328000 0.1339900
C19 C 1.0 0.6330000 0.8047000 0.1468000
H11 H 1.0 0.6492000 0.7619000 0.1728000
C20 C 1.0 0.5011000 0.8340000 0.1246000
H12 H 1.0 0.4292000 0.8115000 0.1352000
N5 N 1.0 0.0162700 0.7230000 0.1225700
C21 C 1.0 0.0958000 0.7642000 0.1009000
H13 H 1.0 0.1012000 0.8234000 0.1043000
C22 C 1.0 0.1715000 0.7247000 0.0737000
H14 H 1.0 0.2261000 0.7568000 0.0584000
C23 C 1.0 0.1674000 0.6386000 0.0690000
C24 C 1.0 0.0809000 0.5954000 0.0898000
H15 H 1.0 0.0726000 0.5362000 0.0864000
C25 C 1.0 0.0063000 0.6397000 0.1155000
H16 H 1.0 0.9453000 0.6097000 0.1288000
C26 C 1.0 0.2626000 0.5942000 0.0462000
C27 C 1.0 0.2291000 0.5934000 0.9914000
C28 C 1.0 0.1094000 0.6295000 0.9534000
H17 H 1.0 0.0363000 0.6565000 0.9611000
C29 C 1.0 0.1192000 0.6180000 0.9044000
H18 H 1.0 0.0551000 0.6365000 0.8718000
C30 C 1.0 0.2447000 0.5727000 0.9109000
C31 C 1.0 0.2950000 0.5468000 0.8706000
C32 C 1.0 0.4187000 0.5027000 0.8774000
C33 C 1.0 0.4634000 0.4700000 0.8360000
H19 H 1.0 0.4158000 0.4746000 0.7991000
C34 C 1.0 0.5848000 0.4317000 0.8588000
H20 H 1.0 0.6385000 0.4048000 0.8408000
C35 C 1.0 0.3812000 0.5614000 0.0851000
C36 C 1.0 0.2149900 0.5714000 0.8148900
C37 C 1.0 0.0797000 0.5464000 0.7903000
H21 H 1.0 0.0352000 0.5118000 0.8085000
C38 C 1.0 0.0113000 0.5724000 0.7392000
H22 H 1.0 0.9196000 0.5538000 0.7229000
N6 N 1.0 0.0654200 0.6219000 0.7113200
C39 C 1.0 0.1970000 0.6443000 0.7345000
H23 H 1.0 0.2396000 0.6777000 0.7150000
C40 C 1.0 0.2735000 0.6206000 0.7858000
H24 H 1.0 0.3661000 0.6383000 0.8008000
N7 N 1.0 0.4858300 0.5185000 0.0752300
N8 N 1.0 0.3083800 0.5587000 0.9640800
Sn1 Sn 1.0 0.0000000 0.0000000 0.0000000
Sn2 Sn 1.0 0.5000000 0.5000000 0.0000000
