data_

_audit_creation_date      'June 11, 2021'
_audit_creation_method    'Draft CIF file generated with Atomsk'
 
_chemical_name_common             ?
_chemical_melting_point           ?
_chemical_formula_iupac           'Be16 H40 C72 O64'
_chemical_formula_moiety          'Be16 H40 C72 O64'
_chemical_formula_sum             'Be16 H40 C72 O64'
_chemical_formula_weight          2073.243
_chemical_compound_source         ?
_chemical_absolute_configuration  ?
_exptl_crystal_description        'EDIT-ENTRY'
_diffrn_measurement_device_type   'EDIT-ENTRY'
 
_space_group_IT_number            1
_space_group_crystal_system       orthorhombic
_symmetry_space_group_name_Hall   'P 1'
_symmetry_space_group_name_H-M    'P 1'
 
loop_
_space_group_symop_operation_xyz
'+x,+y,+z'
 
_cell_length_a                    10.2570
_cell_length_b                    18.9009
_cell_length_c                    18.9009
_cell_angle_alpha                 90.0000
_cell_angle_beta                  90.0000
_cell_angle_gamma                 90.0000
_cell_volume                      3664.2519
 
loop_
 _atom_site_label
 _atom_site_type_symbol
 _atom_site_fract_x
 _atom_site_fract_y
 _atom_site_fract_z
Be1  Be  0.868800  0.182500  0.929400
Be2  Be  0.868800  0.817500  0.070600
Be3  Be  0.368800  0.570600  0.682500
Be4  Be  0.368800  0.429400  0.317500
Be5  Be  0.631200  0.317500  0.429400
Be6  Be  0.631200  0.682500  0.570600
Be7  Be  0.131200  0.929400  0.182500
Be8  Be  0.131200  0.070600  0.817500
Be9  Be  0.131200  0.817500  0.070600
Be10  Be  0.131200  0.182500  0.929400
Be11  Be  0.631200  0.429400  0.317500
Be12  Be  0.631200  0.570600  0.682500
Be13  Be  0.368800  0.682500  0.570600
Be14  Be  0.368800  0.317500  0.429400
Be15  Be  0.868800  0.070600  0.817500
Be16  Be  0.868800  0.929400  0.182500
H1  H  0.694500  0.310000  0.147400
H2  H  0.694500  0.690000  0.852600
H3  H  0.194500  0.352600  0.810000
H4  H  0.194500  0.647400  0.190000
H5  H  0.805500  0.190000  0.647400
H6  H  0.805500  0.810000  0.352600
H7  H  0.305500  0.147400  0.310000
H8  H  0.305500  0.852600  0.690000
H9  H  0.305500  0.690000  0.852600
H10  H  0.305500  0.310000  0.147400
H11  H  0.805500  0.647400  0.190000
H12  H  0.805500  0.352600  0.810000
H13  H  0.194500  0.810000  0.352600
H14  H  0.194500  0.190000  0.647400
H15  H  0.694500  0.852600  0.690000
H16  H  0.694500  0.147400  0.310000
H17  H  -0.000000  0.152900  0.017400
H18  H  0.000000  0.847100  0.982600
H19  H  0.500000  0.482600  0.652900
H20  H  0.500000  0.517400  0.347100
H21  H  0.500000  0.347100  0.517400
H22  H  0.500000  0.652900  0.482600
H23  H  -0.000000  0.017400  0.152900
H24  H  0.000000  0.982600  0.847100
H25  H  0.750200  0.098500  0.901500
H26  H  0.750200  0.901500  0.098500
H27  H  0.250200  0.598500  0.598500
H28  H  0.250200  0.401500  0.401500
H29  H  0.749800  0.401500  0.401500
H30  H  0.749800  0.598500  0.598500
H31  H  0.249800  0.901500  0.098500
H32  H  0.249800  0.098500  0.901500
H33  H  0.500000  0.213200  0.992800
H34  H  0.500000  0.786800  0.007200
H35  H  0.000000  0.507200  0.713200
H36  H  -0.000000  0.492800  0.286800
H37  H  -0.000000  0.286800  0.492800
H38  H  0.000000  0.713200  0.507200
H39  H  0.500000  0.992800  0.213200
H40  H  0.500000  0.007200  0.786800
C1  C  0.744800  0.240300  0.031900
C2  C  0.618100  0.257200  0.065900
C3  C  0.616000  0.296100  0.127100
C4  C  0.744800  0.759700  0.968100
C5  C  0.618100  0.742800  0.934100
C6  C  0.616000  0.703900  0.872900
C7  C  0.244800  0.468100  0.740300
C8  C  0.118100  0.434100  0.757200
C9  C  0.116000  0.372900  0.796100
C10  C  0.244800  0.531900  0.259700
C11  C  0.118100  0.565900  0.242800
C12  C  0.116000  0.627100  0.203900
C13  C  0.755200  0.259700  0.531900
C14  C  0.881900  0.242800  0.565900
C15  C  0.884000  0.203900  0.627100
C16  C  0.755200  0.740300  0.468100
C17  C  0.881900  0.757200  0.434100
C18  C  0.884000  0.796100  0.372900
C19  C  0.255200  0.031900  0.240300
C20  C  0.381900  0.065900  0.257200
C21  C  0.384000  0.127100  0.296100
C22  C  0.255200  0.968100  0.759700
C23  C  0.381900  0.934100  0.742800
C24  C  0.384000  0.872900  0.703900
C25  C  0.255200  0.759700  0.968100
C26  C  0.381900  0.742800  0.934100
C27  C  0.384000  0.703900  0.872900
C28  C  0.255200  0.240300  0.031900
C29  C  0.381900  0.257200  0.065900
C30  C  0.384000  0.296100  0.127100
C31  C  0.755200  0.531900  0.259700
C32  C  0.881900  0.565900  0.242800
C33  C  0.884000  0.627100  0.203900
C34  C  0.755200  0.468100  0.740300
C35  C  0.881900  0.434100  0.757200
C36  C  0.884000  0.372900  0.796100
C37  C  0.244800  0.740300  0.468100
C38  C  0.118100  0.757200  0.434100
C39  C  0.116000  0.796100  0.372900
C40  C  0.244800  0.259700  0.531900
C41  C  0.118100  0.242800  0.565900
C42  C  0.116000  0.203900  0.627100
C43  C  0.744800  0.968100  0.759700
C44  C  0.618100  0.934100  0.742800
C45  C  0.616000  0.872900  0.703900
C46  C  0.744800  0.031900  0.240300
C47  C  0.618100  0.065900  0.257200
C48  C  0.616000  0.127100  0.296100
C49  C  0.500000  0.357200  0.224300
C50  C  0.500000  0.315100  0.159300
C51  C  0.500000  0.238600  0.035000
C52  C  0.500000  0.642800  0.775700
C53  C  0.500000  0.684900  0.840700
C54  C  0.500000  0.761400  0.965000
C55  C  -0.000000  0.275700  0.857200
C56  C  -0.000000  0.340700  0.815100
C57  C  0.000000  0.465000  0.738600
C58  C  -0.000000  0.724300  0.142800
C59  C  -0.000000  0.659300  0.184900
C60  C  0.000000  0.535000  0.261400
C61  C  -0.000000  0.142800  0.724300
C62  C  -0.000000  0.184900  0.659300
C63  C  0.000000  0.261400  0.535000
C64  C  -0.000000  0.857200  0.275700
C65  C  -0.000000  0.815100  0.340700
C66  C  0.000000  0.738600  0.465000
C67  C  0.500000  0.224300  0.357200
C68  C  0.500000  0.159300  0.315100
C69  C  0.500000  0.035000  0.238600
C70  C  0.500000  0.775700  0.642800
C71  C  0.500000  0.840700  0.684900
C72  C  0.500000  0.965000  0.761400
O1  O  0.741800  0.200230  0.977120
O2  O  0.845100  0.262300  0.057600
O3  O  0.609800  0.374350  0.251820
O4  O  0.741800  0.799770  0.022880
O5  O  0.845100  0.737700  0.942400
O6  O  0.609800  0.625650  0.748180
O7  O  0.241800  0.522880  0.700230
O8  O  0.345100  0.442400  0.762300
O9  O  0.109800  0.248180  0.874350
O10  O  0.241800  0.477120  0.299770
O11  O  0.345100  0.557600  0.237700
O12  O  0.109800  0.751820  0.125650
O13  O  0.758200  0.299770  0.477120
O14  O  0.654900  0.237700  0.557600
O15  O  0.890200  0.125650  0.751820
O16  O  0.758200  0.700230  0.522880
O17  O  0.654900  0.762300  0.442400
O18  O  0.890200  0.874350  0.248180
O19  O  0.258200  0.977120  0.200230
O20  O  0.154900  0.057600  0.262300
O21  O  0.390200  0.251820  0.374350
O22  O  0.258200  0.022880  0.799770
O23  O  0.154900  0.942400  0.737700
O24  O  0.390200  0.748180  0.625650
O25  O  0.258200  0.799770  0.022880
O26  O  0.154900  0.737700  0.942400
O27  O  0.390200  0.625650  0.748180
O28  O  0.258200  0.200230  0.977120
O29  O  0.154900  0.262300  0.057600
O30  O  0.390200  0.374350  0.251820
O31  O  0.758200  0.477120  0.299770
O32  O  0.654900  0.557600  0.237700
O33  O  0.890200  0.751820  0.125650
O34  O  0.758200  0.522880  0.700230
O35  O  0.654900  0.442400  0.762300
O36  O  0.890200  0.248180  0.874350
O37  O  0.241800  0.700230  0.522880
O38  O  0.345100  0.762300  0.442400
O39  O  0.109800  0.874350  0.248180
O40  O  0.241800  0.299770  0.477120
O41  O  0.345100  0.237700  0.557600
O42  O  0.109800  0.125650  0.751820
O43  O  0.741800  0.022880  0.799770
O44  O  0.845100  0.942400  0.737700
O45  O  0.609800  0.748180  0.625650
O46  O  0.741800  0.977120  0.200230
O47  O  0.845100  0.057600  0.262300
O48  O  0.609800  0.251820  0.374350
O49  O  -0.000000  0.168600  0.970750
O50  O  -0.000000  0.831400  0.029250
O51  O  0.500000  0.529250  0.668600
O52  O  0.500000  0.470750  0.331400
O53  O  0.500000  0.331400  0.470750
O54  O  0.500000  0.668600  0.529250
O55  O  -0.000000  0.970750  0.168600
O56  O  -0.000000  0.029250  0.831400
O57  O  0.827400  0.116750  0.883250
O58  O  0.827400  0.883250  0.116750
O59  O  0.327400  0.616750  0.616750
O60  O  0.327400  0.383250  0.383250
O61  O  0.672600  0.383250  0.383250
O62  O  0.672600  0.616750  0.616750
O63  O  0.172600  0.883250  0.116750
O64  O  0.172600  0.116750  0.883250
