data_GUMDEZ_cleanP2_1/c
# Symmetrized structure with precision = 1e-10
_cell_length_a                  11.27
_cell_length_b                  9.842
_cell_length_c                  17.46012
_cell_angle_alpha               90
_cell_angle_beta                126.8732
_cell_angle_gamma               90
_symmetry_space_group_name_H-M  'P2_1/c'
_symmetry_Int_Tables_number     14

loop_
_atom_site_label
_atom_site_type_symbol
_atom_site_occupancy
_atom_site_fract_x
_atom_site_fract_y
_atom_site_fract_z
Zn1 Zn 1.0 0.0958300 0.7476700 0.8405500
S1 S 1.0 0.8963000 0.9350000 0.6737000
C1 C 1.0 0.4085000 0.6972000 0.0070000
H1 H 1.0 0.3819000 0.6095000 0.0110000
C2 C 1.0 0.3941000 0.9021000 0.9612000
C3 C 1.0 0.3514000 0.0260000 0.9148000
H2 H 1.0 0.2567000 0.0430000 0.8593000
C4 C 1.0 0.4630000 0.1225000 0.9587000
C5 C 1.0 0.9585000 0.6817000 0.9392000
H3 H 1.0 0.9467000 0.5905000 0.9223000
C6 C 1.0 0.9617000 0.8741000 0.0045000
C7 C 1.0 0.9514000 0.9706000 0.0593000
H4 H 1.0 0.9236000 0.9491000 0.0984000
C8 C 1.0 0.0133000 0.8995000 0.9504000
C9 C 1.0 0.7977000 0.8965000 0.6940000
H5 H 1.0 0.7578000 0.8083000 0.6674000
H6 H 1.0 0.7183000 0.9613000 0.6663000
H7 H 1.0 0.8494000 0.8938000 0.7620000
C10 C 1.0 0.8321000 0.9372000 0.5737000
H8 H 1.0 0.7931000 0.8489000 0.5467000
H9 H 1.0 0.9069000 0.9610000 0.5659000
H10 H 1.0 0.7536000 0.0029000 0.5418000
N1 N 1.0 0.3106000 0.7825000 0.9363000
N2 N 1.0 0.0089000 0.7796000 0.9072000
N3 N 1.0 0.9302000 0.7313000 0.9947000
N4 N 1.0 0.4606000 0.2577000 0.9317000
O1 O 1.0 0.0268000 0.8499000 0.7270000
O2 O 1.0 0.9530000 0.0690000 0.7145000
