data_JAVTAC_cleanCc
# Symmetrized structure with precision = 1e-10
_cell_length_a                  20.29821
_cell_length_b                  13.29194
_cell_length_c                  8.4212
_cell_angle_alpha               90
_cell_angle_beta                114.5112
_cell_angle_gamma               90
_symmetry_space_group_name_H-M  'Cc'
_symmetry_Int_Tables_number     9

loop_
_atom_site_label
_atom_site_type_symbol
_atom_site_occupancy
_atom_site_fract_x
_atom_site_fract_y
_atom_site_fract_z
Al1 Al 1.0 0.2170000 0.6199000 0.7873000
Al2 Al 1.0 0.6446000 0.2998000 0.1977000
Al3 Al 1.0 0.2830000 0.8801000 0.8533000
Al4 Al 1.0 0.8554000 0.2002000 0.4085000
Al5 Al 1.0 0.5000000 0.3978000 0.5620000
P1 P 1.0 0.2125000 0.5982000 0.1550000
P2 P 1.0 0.6400000 0.3006000 0.5666000
P3 P 1.0 0.2875000 0.9018000 0.2300000
P4 P 1.0 0.8600000 0.1994000 0.7866000
P5 P 1.0 0.5000000 0.3860000 0.9273000
O1 O 1.0 0.2103000 0.6018000 0.9785000
O2 O 1.0 0.6326000 0.3070000 0.3867000
O3 O 1.0 0.1862000 0.4995000 0.1811000
O4 O 1.0 0.6622000 0.1771000 0.1574000
O5 O 1.0 0.6519000 0.1957000 0.6347000
O6 O 1.0 0.2879000 0.6206000 0.2795000
O7 O 1.0 0.2001000 0.8668000 0.6855000
O8 O 1.0 0.5636000 0.3292000 0.0259000
O9 O 1.0 0.5738000 0.3406000 0.5658000
O10 O 1.0 0.2897000 0.8982000 0.0579000
O11 O 1.0 0.8674000 0.1930000 0.6215000
O12 O 1.0 0.3138000 0.0005000 0.3087000
O13 O 1.0 0.8378000 0.3229000 0.3330000
O14 O 1.0 0.8481000 0.3043000 0.8309000
O15 O 1.0 0.2121000 0.8794000 0.2037000
O16 O 1.0 0.2999000 0.6332000 0.7853000
O17 O 1.0 0.9364000 0.1708000 0.3987000
O18 O 1.0 0.9262000 0.1594000 0.9182000
O19 O 1.0 0.5000000 0.4020000 0.7630000
O20 O 1.0 0.5000000 0.4828000 0.9910000
F1 F 1.0 0.2500000 0.7500000 0.9135000
