data_KAXQIL_cleanP2_1/c
# Symmetrized structure with precision = 1e-10
_cell_length_a                  11.8214
_cell_length_b                  5.5673
_cell_length_c                  23.68634
_cell_angle_alpha               90
_cell_angle_beta                109.0471
_cell_angle_gamma               90
_symmetry_space_group_name_H-M  'P2_1/c'
_symmetry_Int_Tables_number     14

loop_
_atom_site_label
_atom_site_type_symbol
_atom_site_occupancy
_atom_site_fract_x
_atom_site_fract_y
_atom_site_fract_z
Ca1 Ca 1.0 0.0860500 0.2558500 0.2228700
H1 H 1.0 0.4244000 0.6996000 0.1189000
H2 H 1.0 0.1743000 0.6249000 0.9061000
H3 H 1.0 0.1166000 0.0541000 0.0372000
H4 H 1.0 0.3341000 0.0623000 0.1729000
H5 H 1.0 0.5358000 0.9783000 0.2197000
H6 H 1.0 0.6252000 0.6186000 0.1691000
H7 H 1.0 0.2327000 0.7066000 0.0078000
H8 H 1.0 0.0627000 0.9713000 0.9358000
C1 C 1.0 0.7303500 0.2414000 0.2348900
C2 C 1.0 0.0681900 0.2393000 0.8449300
C3 C 1.0 0.1763000 0.3908000 0.0313600
C4 C 1.0 0.3611300 0.3896000 0.1421900
C5 C 1.0 0.4470000 0.5567000 0.1399600
C6 C 1.0 0.1620300 0.5114000 0.9322800
C7 C 1.0 0.1094100 0.2927000 0.9106900
C8 C 1.0 0.1273600 0.1687000 0.0108000
C9 C 1.0 0.3924100 0.1728000 0.1719000
C10 C 1.0 0.5130100 0.1244000 0.2002500
C11 C 1.0 0.5669800 0.5071000 0.1696000
C12 C 1.0 0.1965000 0.5610000 0.9930500
C13 C 1.0 0.6001200 0.2917000 0.1999400
C14 C 1.0 0.0947500 0.1204000 0.9502100
S1 S 1.0 0.2093300 0.4636300 0.1076800
O1 O 1.0 0.1378600 0.3050000 0.1309600
O2 O 1.0 0.0471000 0.4152000 0.8093600
O3 O 1.0 0.1964200 0.7189000 0.1117600
O4 O 1.0 0.7595500 0.0257000 0.2437800
O5 O 1.0 0.7959000 0.4191000 0.2528500
O6 O 1.0 0.0607400 0.0251000 0.8283200
