data_KUTDAG_cleanC2
# Symmetrized structure with precision = 1e-10
_cell_length_a                  14.2697
_cell_length_b                  40.363
_cell_length_c                  30.931
_cell_angle_alpha               90
_cell_angle_beta                102.623
_cell_angle_gamma               90
_symmetry_space_group_name_H-M  'C2'
_symmetry_Int_Tables_number     5

loop_
_atom_site_label
_atom_site_type_symbol
_atom_site_occupancy
_atom_site_fract_x
_atom_site_fract_y
_atom_site_fract_z
Co1 Co 1.0 0.1005600 0.1049300 0.2773400
Co2 Co 1.0 0.8285600 0.3535300 0.2275500
Co3 Co 1.0 0.1022400 0.1981400 0.7775100
Co4 Co 1.0 0.3302400 0.4481900 0.7292400
Cd1 Cd 1.0 0.2528900 0.0254900 0.0065900
Cd2 Cd 1.0 0.2481000 0.2753400 0.5023900
N1 N 1.0 0.9986000 0.1207000 0.2961000
N2 N 1.0 0.0143000 0.0882000 0.2302000
N3 N 1.0 0.7077000 0.3651700 0.2028000
N4 N 1.0 0.7716000 0.3401000 0.2722000
N5 N 1.0 0.0065000 0.2115000 0.7272000
N6 N 1.0 0.9935000 0.1845200 0.8016000
N7 N 1.0 0.2788000 0.4672000 0.7731000
N8 N 1.0 0.2059000 0.4290000 0.7038000
O1 O 1.0 0.2175000 0.2227200 0.4802300
O2 O 1.0 0.0600000 0.2191500 0.4566000
O3 O 1.0 0.1937000 0.1187200 0.3277000
O4 O 1.0 0.2061000 0.0928600 0.2529600
O5 O 1.0 0.1411000 0.0438200 0.0525000
O6 O 1.0 0.2962000 0.0433000 0.0735000
O7 O 1.0 0.6508000 0.4705000 0.0436000
O8 O 1.0 0.8144000 0.4750000 0.0354000
O9 O 1.0 0.8804000 0.3671500 0.1820700
O10 O 1.0 0.9581000 0.3409200 0.2589400
O11 O 1.0 0.1873000 0.2865000 0.4392000
O12 O 1.0 0.0426000 0.2959000 0.4571000
O13 O 1.0 0.3020000 0.2569000 0.5778000
O14 O 1.0 0.1466000 0.2603000 0.5561000
O15 O 1.0 0.1999000 0.2099000 0.7533000
O16 O 1.0 0.1858000 0.1851600 0.8270000
O17 O 1.0 0.0559000 0.0807000 0.9557000
O18 O 1.0 0.2222000 0.0791000 0.9789000
O19 O 1.0 0.0422000 0.0027500 0.9593400
O20 O 1.0 0.1772000 0.0063000 0.9384000
O21 O 1.0 0.4479000 0.4578900 0.7560100
O22 O 1.0 0.3843000 0.4344000 0.6788000
O23 O 1.0 0.2834000 0.3309000 0.5287000
O24 O 1.0 0.1366000 0.3393000 0.5385000
C1 C 1.0 0.1416000 0.2113700 0.4545000
C2 C 1.0 0.1532000 0.1807300 0.4256800
C3 C 1.0 0.2434000 0.1678900 0.4254200
H1 H 1.0 0.2968000 0.1751000 0.4462000
C4 C 1.0 0.2538000 0.1442700 0.3941000
C5 C 1.0 0.1740000 0.1335100 0.3630000
C6 C 1.0 0.0837000 0.1463500 0.3632800
C7 C 1.0 0.0733000 0.1699600 0.3946100
H2 H 1.0 0.0129000 0.1786000 0.3948000
C8 C 1.0 0.3419000 0.0874600 0.4018000
H3 H 1.0 0.3093000 0.0809000 0.4244000
H4 H 1.0 0.4050000 0.0778000 0.4077000
H5 H 1.0 0.3063000 0.0799000 0.3735000
C9 C 1.0 0.3503000 0.1257200 0.4012000
C10 C 1.0 0.3984000 0.1342000 0.3624000
H6 H 1.0 0.4040000 0.1578000 0.3601000
H7 H 1.0 0.3600000 0.1257000 0.3352000
H8 H 1.0 0.4612000 0.1244000 0.3676000
C11 C 1.0 0.4261000 0.1355000 0.4430000
H9 H 1.0 0.4321000 0.1592000 0.4445000
H10 H 1.0 0.4869000 0.1258000 0.4417000
H11 H 1.0 0.4063000 0.1275000 0.4689000
C12 C 1.0 0.0065000 0.1368000 0.3304000
H12 H 1.0 0.9479000 0.1441000 0.3353000
C13 C 1.0 0.9074000 0.1123000 0.2674000
H13 H 1.0 0.9044000 0.1292000 0.2444000
C14 C 1.0 0.8137000 0.1192000 0.2811000
H14 H 1.0 0.8117000 0.1421000 0.2903000
H15 H 1.0 0.8081000 0.1051000 0.3058000
C15 C 1.0 0.7282000 0.1121000 0.2403000
H16 H 1.0 0.6677000 0.1124000 0.2498000
H17 H 1.0 0.7260000 0.1291000 0.2180000
C16 C 1.0 0.7432000 0.0788000 0.2214000
H18 H 1.0 0.6861000 0.0727000 0.1995000
H19 H 1.0 0.7525000 0.0624000 0.2449000
C17 C 1.0 0.8303000 0.0784000 0.1997000
H20 H 1.0 0.8284000 0.0969000 0.1794000
H21 H 1.0 0.8340000 0.0578000 0.1840000
C18 C 1.0 0.9166000 0.0819000 0.2412000
H22 H 1.0 0.9199000 0.0623000 0.2600000
C19 C 1.0 0.0271000 0.0765000 0.1927000
H23 H 1.0 0.9740000 0.0693000 0.1717000
C20 C 1.0 0.1217000 0.0744500 0.1824900
C21 C 1.0 0.2061000 0.0813200 0.2132400
C22 C 1.0 0.2942000 0.0778000 0.2015500
C23 C 1.0 0.2980000 0.0674000 0.1591000
H24 H 1.0 0.3570000 0.0650000 0.1513000
C24 C 1.0 0.2135000 0.0605000 0.1283700
C25 C 1.0 0.1254000 0.0640500 0.1400500
H25 H 1.0 0.0689000 0.0595000 0.1195000
C26 C 1.0 0.3892000 0.0843700 0.2360400
C27 C 1.0 0.3948000 0.0654000 0.2798000
H26 H 1.0 0.4551000 0.0700000 0.2997000
H27 H 1.0 0.3897000 0.0420000 0.2738000
H28 H 1.0 0.3432000 0.0723000 0.2931000
C28 C 1.0 0.4751000 0.0761000 0.2152000
H29 H 1.0 0.5338000 0.0791000 0.2369000
H30 H 1.0 0.4746000 0.0905000 0.1905000
H31 H 1.0 0.4704000 0.0535000 0.2053000
C29 C 1.0 0.4021000 0.1211800 0.2499000
H32 H 1.0 0.4606000 0.1238000 0.2719000
H33 H 1.0 0.3488000 0.1282000 0.2620000
H34 H 1.0 0.4049000 0.1345000 0.2245000
C30 C 1.0 0.2187000 0.0506000 0.0830000
C31 C 1.0 0.7347000 0.4574000 0.0459000
C32 C 1.0 0.7740000 0.4312100 0.0824100
C33 C 1.0 0.7164000 0.4197400 0.1101000
H35 H 1.0 0.6540000 0.4276000 0.1069000
C34 C 1.0 0.7521000 0.3965000 0.1427000
C35 C 1.0 0.8454000 0.3847000 0.1476000
C36 C 1.0 0.9029000 0.3962000 0.1199000
C37 C 1.0 0.8672000 0.4194300 0.0873000
H36 H 1.0 0.9058000 0.4271000 0.0687000
C38 C 1.0 0.9927000 0.3767400 0.1149000
C39 C 1.0 0.0668000 0.3890000 0.1558000
H37 H 1.0 0.0454000 0.3834000 0.1822000
H38 H 1.0 0.0735000 0.4126000 0.1541000
H39 H 1.0 0.1277000 0.3787000 0.1565000
C40 C 1.0 0.9792000 0.3389000 0.1109000
H40 H 1.0 0.9520000 0.3310000 0.1348000
H41 H 1.0 0.0404000 0.3285000 0.1124000
H42 H 1.0 0.9370000 0.3337000 0.0831000
C41 C 1.0 0.0362000 0.3869000 0.0761000
H43 H 1.0 0.0494000 0.4102000 0.0777000
H44 H 1.0 0.9918000 0.3819000 0.0488000
H45 H 1.0 0.0949000 0.3749000 0.0774000
C42 C 1.0 0.6873000 0.3862000 0.1674000
H46 H 1.0 0.6248000 0.3941000 0.1591000
C43 C 1.0 0.6298000 0.3512000 0.2223000
H47 H 1.0 0.6247000 0.3283000 0.2119000
C44 C 1.0 0.5373000 0.3620000 0.2126000
H48 H 1.0 0.5120000 0.3597000 0.1810000
H49 H 1.0 0.5364000 0.3854000 0.2199000
C45 C 1.0 0.4710000 0.3434000 0.2372000
H50 H 1.0 0.4673000 0.3202000 0.2287000
H51 H 1.0 0.4068000 0.3527000 0.2294000
C46 C 1.0 0.5106000 0.3464000 0.2875000
H52 H 1.0 0.5069000 0.3692000 0.2971000
H53 H 1.0 0.4747000 0.3324000 0.3036000
C47 C 1.0 0.6147000 0.3351000 0.2950000
H54 H 1.0 0.6445000 0.3391000 0.3259000
H55 H 1.0 0.6145000 0.3113000 0.2905000
C48 C 1.0 0.6684000 0.3478000 0.2717000
H56 H 1.0 0.6721000 0.3710000 0.2815000
C49 C 1.0 0.8254000 0.3268000 0.3127000
H57 H 1.0 0.7898000 0.3196000 0.3327000
C50 C 1.0 0.9239000 0.3232800 0.3260100
C51 C 1.0 0.9865000 0.3289700 0.2981400
C52 C 1.0 0.0845000 0.3240000 0.3134800
C53 C 1.0 0.1199000 0.3133000 0.3567000
H58 H 1.0 0.1855000 0.3100000 0.3670000
C54 C 1.0 0.0573000 0.3076000 0.3845700
C55 C 1.0 0.9592000 0.3126100 0.3692300
H59 H 1.0 0.9173000 0.3088000 0.3879000
C56 C 1.0 0.1533000 0.3282400 0.2811000
C57 C 1.0 0.1613000 0.3639000 0.2647000
H60 H 1.0 0.2060000 0.3645000 0.2456000
H61 H 1.0 0.1833000 0.3782000 0.2897000
H62 H 1.0 0.0994000 0.3712000 0.2487000
C58 C 1.0 0.1156000 0.3117000 0.2352000
H63 H 1.0 0.1607000 0.3154000 0.2168000
H64 H 1.0 0.0548000 0.3213000 0.2214000
H65 H 1.0 0.1079000 0.2884000 0.2391000
C59 C 1.0 0.2517000 0.3120000 0.3007000
H66 H 1.0 0.2941000 0.3155000 0.2809000
H67 H 1.0 0.2432000 0.2887000 0.3044000
H68 H 1.0 0.2790000 0.3219000 0.3289000
C60 C 1.0 0.0924000 0.2994000 0.4274000
C61 C 1.0 0.2200000 0.2551000 0.5831600
C62 C 1.0 0.2095000 0.2441500 0.6282300
C63 C 1.0 0.2947000 0.2387900 0.6591800
H69 H 1.0 0.3533000 0.2427000 0.6516000
C64 C 1.0 0.2922000 0.2276000 0.7014100
C65 C 1.0 0.2045000 0.2217000 0.7126900
C66 C 1.0 0.1194000 0.2271000 0.6817400
C67 C 1.0 0.1218000 0.2383100 0.6395100
H70 H 1.0 0.0649000 0.2419000 0.6188000
C68 C 1.0 0.3879000 0.2248300 0.7350000
C69 C 1.0 0.4771000 0.2378000 0.7198000
H71 H 1.0 0.4794000 0.2282000 0.6916000
H72 H 1.0 0.5340000 0.2318000 0.7412000
H73 H 1.0 0.4735000 0.2615000 0.7170000
C70 C 1.0 0.4021000 0.1869700 0.7420000
H74 H 1.0 0.4001000 0.1764000 0.7140000
H75 H 1.0 0.3518000 0.1782000 0.7548000
H76 H 1.0 0.4631000 0.1828000 0.7615000
C71 C 1.0 0.7357000 0.2062000 0.7086000
H77 H 1.0 0.6851000 0.2205000 0.6926000
H78 H 1.0 0.7269000 0.1841000 0.6962000
C72 C 1.0 0.3940000 0.2421000 0.7807000
H79 H 1.0 0.3402000 0.2354000 0.7927000
H80 H 1.0 0.3929000 0.2657000 0.7769000
H81 H 1.0 0.4525000 0.2357000 0.8008000
C73 C 1.0 0.0274000 0.2230000 0.6911000
H82 H 1.0 0.9756000 0.2292000 0.6687000
C74 C 1.0 0.9076000 0.2033000 0.7316600
H83 H 1.0 0.8977000 0.1804000 0.7212000
C75 C 1.0 0.8351000 0.2199000 0.7073000
H84 H 1.0 0.8421000 0.2199000 0.6768000
H85 H 1.0 0.8387000 0.2427000 0.7173000
C76 C 1.0 0.7372000 0.2059000 0.7573000
H86 H 1.0 0.6779000 0.1959000 0.7613000
H87 H 1.0 0.7375000 0.2287000 0.7673000
C77 C 1.0 0.8205000 0.1879000 0.7872000
H88 H 1.0 0.8172000 0.1906000 0.8180000
H89 H 1.0 0.8176000 0.1644000 0.7803000
C78 C 1.0 0.9059000 0.2015000 0.7799300
H90 H 1.0 0.9101000 0.2242000 0.7913000
C79 C 1.0 0.9952000 0.1654300 0.8327000
H91 H 1.0 0.9371000 0.1596000 0.8395000
C80 C 1.0 0.0875000 0.1506500 0.8608200
C81 C 1.0 0.1775000 0.1641900 0.8618700
C82 C 1.0 0.2558000 0.1546700 0.8947000
C83 C 1.0 0.2441000 0.1316000 0.9265000
H92 H 1.0 0.2965000 0.1253000 0.9485000
C84 C 1.0 0.1541000 0.1180900 0.9254000
C85 C 1.0 0.0757000 0.1276000 0.8926100
H93 H 1.0 0.0155000 0.1185000 0.8919000
C86 C 1.0 0.3562000 0.1709800 0.8991300
C87 C 1.0 0.3403000 0.2091000 0.9001000
H94 H 1.0 0.4009000 0.2203000 0.9034000
H95 H 1.0 0.3120000 0.2147000 0.9247000
H96 H 1.0 0.2982000 0.2160000 0.8730000
C88 C 1.0 0.4023000 0.1613000 0.8610000
H97 H 1.0 0.4638000 0.1719000 0.8647000
H98 H 1.0 0.3618000 0.1682000 0.8335000
H99 H 1.0 0.4105000 0.1377000 0.8608000
C89 C 1.0 0.4263000 0.1616000 0.9420000
H100 H 1.0 0.4861000 0.1729000 0.9435000
H101 H 1.0 0.4368000 0.1381000 0.9426000
H102 H 1.0 0.4000000 0.1679000 0.9668000
C90 C 1.0 0.0925000 0.0041000 0.9314200
C91 C 1.0 0.1440000 0.0916800 0.9596000
C92 C 1.0 0.5530000 0.4923700 0.8825200
C93 C 1.0 0.4549000 0.4873400 0.8674400
H103 H 1.0 0.4132000 0.4914000 0.8861000
C94 C 1.0 0.4192000 0.4762000 0.8244700
C95 C 1.0 0.4815000 0.4701000 0.7965800
C96 C 1.0 0.5796000 0.4751000 0.8116600
C97 C 1.0 0.6153000 0.4862700 0.8546300
H104 H 1.0 0.6809000 0.4896000 0.8647000
C98 C 1.0 0.7590000 0.4764000 0.8052000
H105 H 1.0 0.8002000 0.4702000 0.7858000
H106 H 1.0 0.7790000 0.4652000 0.8330000
H107 H 1.0 0.7625000 0.4999000 0.8100000
C99 C 1.0 0.6543000 0.4665400 0.7838000
C100 C 1.0 0.6506000 0.4289700 0.7746000
H108 H 1.0 0.5861000 0.4227000 0.7607000
H109 H 1.0 0.6705000 0.4172000 0.8020000
H110 H 1.0 0.6928000 0.4237000 0.7553000
C101 C 1.0 0.6349000 0.4854000 0.7398000
H111 H 1.0 0.5709000 0.4808000 0.7236000
H112 H 1.0 0.6801000 0.4785000 0.7227000
H113 H 1.0 0.1417000 0.0088000 0.7455000
C102 C 1.0 0.3151000 0.4721000 0.8115000
H114 H 1.0 0.2776000 0.4732000 0.8325000
C103 C 1.0 0.1151000 0.4746000 0.7966000
H115 H 1.0 0.1265000 0.4589000 0.8208000
H116 H 1.0 0.1324000 0.4967000 0.8082000
C104 C 1.0 0.9737000 0.4430000 0.7438000
H117 H 1.0 0.9056000 0.4458000 0.7314000
H118 H 1.0 0.9806000 0.4242000 0.7639000
C105 C 1.0 0.0222000 0.4340000 0.7058000
H119 H 1.0 0.0075000 0.4500000 0.6819000
H120 H 1.0 0.0036000 0.4120000 0.6942000
C106 C 1.0 0.1753000 0.4145000 0.6693000
H121 H 1.0 0.1098000 0.4105000 0.6598000
C107 C 1.0 0.1730000 0.4649000 0.7601000
H122 H 1.0 0.1571000 0.4832000 0.7390000
C108 C 1.0 0.0095000 0.4735000 0.7705000
H123 H 1.0 0.9690000 0.4768000 0.7916000
H124 H 1.0 0.9993000 0.4922000 0.7505000
C109 C 1.0 0.1385000 0.4353000 0.7316000
H125 H 1.0 0.1468000 0.4166000 0.7523000
C110 C 1.0 0.2466000 0.4023700 0.6409700
C111 C 1.0 0.3382000 0.4153800 0.6447100
C112 C 1.0 0.3932000 0.4060700 0.6148000
C113 C 1.0 0.3566000 0.3837000 0.5811000
H126 H 1.0 0.3935000 0.3775000 0.5611000
C114 C 1.0 0.2650000 0.3707300 0.5773600
C115 C 1.0 0.2100000 0.3800400 0.6072900
H127 H 1.0 0.1487000 0.3713000 0.6048000
C116 C 1.0 0.5645000 0.4165000 0.6524000
H128 H 1.0 0.6261000 0.4236000 0.6481000
H129 H 1.0 0.5664000 0.3932000 0.6587000
H130 H 1.0 0.5491000 0.4285000 0.6767000
C117 C 1.0 0.4876000 0.4234300 0.6101000
C118 C 1.0 0.5163000 0.4185000 0.5652000
H131 H 1.0 0.5760000 0.4296000 0.5657000
H132 H 1.0 0.4673000 0.4276000 0.5419000
H133 H 1.0 0.5233000 0.3953000 0.5600000
C119 C 1.0 0.4813000 0.4613600 0.6146000
H134 H 1.0 0.5414000 0.4712000 0.6125000
H135 H 1.0 0.4675000 0.4667000 0.6428000
H136 H 1.0 0.4311000 0.4698000 0.5914000
C120 C 1.0 0.2265000 0.3425000 0.5488000
Cd3 Cd 1.0 0.0000000 0.0470000 0.0000000
Cd4 Cd 1.0 0.5000000 0.4596800 0.0000000
Cd5 Cd 1.0 0.0000000 0.3396000 0.5000000
Cd6 Cd 1.0 0.0000000 0.2527000 0.5000000
