data_

_audit_creation_date      'June 11, 2021'
_audit_creation_method    'Draft CIF file generated with Atomsk'
 
_chemical_name_common             ?
_chemical_melting_point           ?
_chemical_formula_iupac           'O48 S48 C144 H48 Mn12'
_chemical_formula_moiety          'O48 S48 C144 H48 Mn12'
_chemical_formula_sum             'O48 S48 C144 H48 Mn12'
_chemical_formula_weight          4744.057
_chemical_compound_source         ?
_chemical_absolute_configuration  ?
_exptl_crystal_description        'EDIT-ENTRY'
_diffrn_measurement_device_type   'EDIT-ENTRY'
 
_space_group_IT_number            1
_space_group_crystal_system       cubic
_symmetry_space_group_name_Hall   'P 1'
_symmetry_space_group_name_H-M    'P 1'
 
loop_
_space_group_symop_operation_xyz
'+x,+y,+z'
 
_cell_length_a                    20.9939
_cell_length_b                    20.9939
_cell_length_c                    20.9939
_cell_angle_alpha                 90.0000
_cell_angle_beta                  90.0000
_cell_angle_gamma                 90.0000
_cell_volume                      9252.9320
 
loop_
 _atom_site_label
 _atom_site_type_symbol
 _atom_site_fract_x
 _atom_site_fract_y
 _atom_site_fract_z
 _atom_site_occupancy
 _atom_site_thermal_displace_type
 _atom_site_B_iso_or_equiv
O1  O  0.358600  0.073010  0.433300 1.000000 Biso 1.000000
S1  S  0.395480  0.186040  0.288500 1.000000 Biso 1.000000
C1  C  0.310500  0.187300  0.373600 1.000000 Biso 1.000000
C2  C  0.337300  0.242900  0.290600 1.000000 Biso 1.000000
H1  H  0.287300  0.176500  0.410900 1.000000 Biso 1.000000
O2  O  0.641400  0.926990  0.433300 1.000000 Biso 1.000000
S2  S  0.604520  0.813960  0.288500 1.000000 Biso 1.000000
C3  C  0.689500  0.812700  0.373600 1.000000 Biso 1.000000
C4  C  0.662700  0.757100  0.290600 1.000000 Biso 1.000000
H2  H  0.712700  0.823500  0.410900 1.000000 Biso 1.000000
O3  O  0.641400  0.073010  0.566700 1.000000 Biso 1.000000
S3  S  0.604520  0.186040  0.711500 1.000000 Biso 1.000000
C5  C  0.689500  0.187300  0.626400 1.000000 Biso 1.000000
C6  C  0.662700  0.242900  0.709400 1.000000 Biso 1.000000
H3  H  0.712700  0.176500  0.589100 1.000000 Biso 1.000000
O4  O  0.358600  0.926990  0.566700 1.000000 Biso 1.000000
S4  S  0.395480  0.813960  0.711500 1.000000 Biso 1.000000
C7  C  0.310500  0.812700  0.626400 1.000000 Biso 1.000000
C8  C  0.337300  0.757100  0.709400 1.000000 Biso 1.000000
H4  H  0.287300  0.823500  0.589100 1.000000 Biso 1.000000
O5  O  0.433300  0.358600  0.073010 1.000000 Biso 1.000000
S5  S  0.288500  0.395480  0.186040 1.000000 Biso 1.000000
C9  C  0.373600  0.310500  0.187300 1.000000 Biso 1.000000
C10  C  0.290600  0.337300  0.242900 1.000000 Biso 1.000000
H5  H  0.410900  0.287300  0.176500 1.000000 Biso 1.000000
O6  O  0.433300  0.641400  0.926990 1.000000 Biso 1.000000
S6  S  0.288500  0.604520  0.813960 1.000000 Biso 1.000000
C11  C  0.373600  0.689500  0.812700 1.000000 Biso 1.000000
C12  C  0.290600  0.662700  0.757100 1.000000 Biso 1.000000
H6  H  0.410900  0.712700  0.823500 1.000000 Biso 1.000000
O7  O  0.566700  0.641400  0.073010 1.000000 Biso 1.000000
S7  S  0.711500  0.604520  0.186040 1.000000 Biso 1.000000
C13  C  0.626400  0.689500  0.187300 1.000000 Biso 1.000000
C14  C  0.709400  0.662700  0.242900 1.000000 Biso 1.000000
H7  H  0.589100  0.712700  0.176500 1.000000 Biso 1.000000
O8  O  0.566700  0.358600  0.926990 1.000000 Biso 1.000000
S8  S  0.711500  0.395480  0.813960 1.000000 Biso 1.000000
C15  C  0.626400  0.310500  0.812700 1.000000 Biso 1.000000
C16  C  0.709400  0.337300  0.757100 1.000000 Biso 1.000000
H8  H  0.589100  0.287300  0.823500 1.000000 Biso 1.000000
O9  O  0.073010  0.433300  0.358600 1.000000 Biso 1.000000
S9  S  0.186040  0.288500  0.395480 1.000000 Biso 1.000000
C17  C  0.187300  0.373600  0.310500 1.000000 Biso 1.000000
C18  C  0.242900  0.290600  0.337300 1.000000 Biso 1.000000
H9  H  0.176500  0.410900  0.287300 1.000000 Biso 1.000000
O10  O  0.926990  0.433300  0.641400 1.000000 Biso 1.000000
S10  S  0.813960  0.288500  0.604520 1.000000 Biso 1.000000
C19  C  0.812700  0.373600  0.689500 1.000000 Biso 1.000000
C20  C  0.757100  0.290600  0.662700 1.000000 Biso 1.000000
H10  H  0.823500  0.410900  0.712700 1.000000 Biso 1.000000
O11  O  0.073010  0.566700  0.641400 1.000000 Biso 1.000000
S11  S  0.186040  0.711500  0.604520 1.000000 Biso 1.000000
C21  C  0.187300  0.626400  0.689500 1.000000 Biso 1.000000
C22  C  0.242900  0.709400  0.662700 1.000000 Biso 1.000000
H11  H  0.176500  0.589100  0.712700 1.000000 Biso 1.000000
O12  O  0.926990  0.566700  0.358600 1.000000 Biso 1.000000
S12  S  0.813960  0.711500  0.395480 1.000000 Biso 1.000000
C23  C  0.812700  0.626400  0.310500 1.000000 Biso 1.000000
C24  C  0.757100  0.709400  0.337300 1.000000 Biso 1.000000
H12  H  0.823500  0.589100  0.287300 1.000000 Biso 1.000000
O13  O  0.073010  0.358600  0.566700 1.000000 Biso 1.000000
S13  S  0.186040  0.395480  0.711500 1.000000 Biso 1.000000
C25  C  0.187300  0.310500  0.626400 1.000000 Biso 1.000000
C26  C  0.242900  0.337300  0.709400 1.000000 Biso 1.000000
H13  H  0.176500  0.287300  0.589100 1.000000 Biso 1.000000
O14  O  0.926990  0.641400  0.566700 1.000000 Biso 1.000000
S14  S  0.813960  0.604520  0.711500 1.000000 Biso 1.000000
C27  C  0.812700  0.689500  0.626400 1.000000 Biso 1.000000
C28  C  0.757100  0.662700  0.709400 1.000000 Biso 1.000000
H14  H  0.823500  0.712700  0.589100 1.000000 Biso 1.000000
O15  O  0.073010  0.641400  0.433300 1.000000 Biso 1.000000
S15  S  0.186040  0.604520  0.288500 1.000000 Biso 1.000000
C29  C  0.187300  0.689500  0.373600 1.000000 Biso 1.000000
C30  C  0.242900  0.662700  0.290600 1.000000 Biso 1.000000
H15  H  0.176500  0.712700  0.410900 1.000000 Biso 1.000000
O16  O  0.926990  0.358600  0.433300 1.000000 Biso 1.000000
S16  S  0.813960  0.395480  0.288500 1.000000 Biso 1.000000
C31  C  0.812700  0.310500  0.373600 1.000000 Biso 1.000000
C32  C  0.757100  0.337300  0.290600 1.000000 Biso 1.000000
H16  H  0.823500  0.287300  0.410900 1.000000 Biso 1.000000
O17  O  0.358600  0.433300  0.926990 1.000000 Biso 1.000000
S17  S  0.395480  0.288500  0.813960 1.000000 Biso 1.000000
C33  C  0.310500  0.373600  0.812700 1.000000 Biso 1.000000
C34  C  0.337300  0.290600  0.757100 1.000000 Biso 1.000000
H17  H  0.287300  0.410900  0.823500 1.000000 Biso 1.000000
O18  O  0.641400  0.433300  0.073010 1.000000 Biso 1.000000
S18  S  0.604520  0.288500  0.186040 1.000000 Biso 1.000000
C35  C  0.689500  0.373600  0.187300 1.000000 Biso 1.000000
C36  C  0.662700  0.290600  0.242900 1.000000 Biso 1.000000
H18  H  0.712700  0.410900  0.176500 1.000000 Biso 1.000000
O19  O  0.641400  0.566700  0.926990 1.000000 Biso 1.000000
S19  S  0.604520  0.711500  0.813960 1.000000 Biso 1.000000
C37  C  0.689500  0.626400  0.812700 1.000000 Biso 1.000000
C38  C  0.662700  0.709400  0.757100 1.000000 Biso 1.000000
H19  H  0.712700  0.589100  0.823500 1.000000 Biso 1.000000
O20  O  0.358600  0.566700  0.073010 1.000000 Biso 1.000000
S20  S  0.395480  0.711500  0.186040 1.000000 Biso 1.000000
C39  C  0.310500  0.626400  0.187300 1.000000 Biso 1.000000
C40  C  0.337300  0.709400  0.242900 1.000000 Biso 1.000000
H20  H  0.287300  0.589100  0.176500 1.000000 Biso 1.000000
O21  O  0.433300  0.073010  0.641400 1.000000 Biso 1.000000
S21  S  0.288500  0.186040  0.604520 1.000000 Biso 1.000000
C41  C  0.373600  0.187300  0.689500 1.000000 Biso 1.000000
C42  C  0.290600  0.242900  0.662700 1.000000 Biso 1.000000
H21  H  0.410900  0.176500  0.712700 1.000000 Biso 1.000000
O22  O  0.433300  0.926990  0.358600 1.000000 Biso 1.000000
S22  S  0.288500  0.813960  0.395480 1.000000 Biso 1.000000
C43  C  0.373600  0.812700  0.310500 1.000000 Biso 1.000000
C44  C  0.290600  0.757100  0.337300 1.000000 Biso 1.000000
H22  H  0.410900  0.823500  0.287300 1.000000 Biso 1.000000
O23  O  0.566700  0.073010  0.358600 1.000000 Biso 1.000000
S23  S  0.711500  0.186040  0.395480 1.000000 Biso 1.000000
C45  C  0.626400  0.187300  0.310500 1.000000 Biso 1.000000
C46  C  0.709400  0.242900  0.337300 1.000000 Biso 1.000000
H23  H  0.589100  0.176500  0.287300 1.000000 Biso 1.000000
O24  O  0.566700  0.926990  0.641400 1.000000 Biso 1.000000
S24  S  0.711500  0.813960  0.604520 1.000000 Biso 1.000000
C47  C  0.626400  0.812700  0.689500 1.000000 Biso 1.000000
C48  C  0.709400  0.757100  0.662700 1.000000 Biso 1.000000
H24  H  0.589100  0.823500  0.712700 1.000000 Biso 1.000000
O25  O  0.641400  0.926990  0.566700 1.000000 Biso 1.000000
S25  S  0.604520  0.813960  0.711500 1.000000 Biso 1.000000
C49  C  0.689500  0.812700  0.626400 1.000000 Biso 1.000000
C50  C  0.662700  0.757100  0.709400 1.000000 Biso 1.000000
H25  H  0.712700  0.823500  0.589100 1.000000 Biso 1.000000
O26  O  0.358600  0.073010  0.566700 1.000000 Biso 1.000000
S26  S  0.395480  0.186040  0.711500 1.000000 Biso 1.000000
C51  C  0.310500  0.187300  0.626400 1.000000 Biso 1.000000
C52  C  0.337300  0.242900  0.709400 1.000000 Biso 1.000000
H26  H  0.287300  0.176500  0.589100 1.000000 Biso 1.000000
O27  O  0.358600  0.926990  0.433300 1.000000 Biso 1.000000
S27  S  0.395480  0.813960  0.288500 1.000000 Biso 1.000000
C53  C  0.310500  0.812700  0.373600 1.000000 Biso 1.000000
C54  C  0.337300  0.757100  0.290600 1.000000 Biso 1.000000
H27  H  0.287300  0.823500  0.410900 1.000000 Biso 1.000000
O28  O  0.641400  0.073010  0.433300 1.000000 Biso 1.000000
S28  S  0.604520  0.186040  0.288500 1.000000 Biso 1.000000
C55  C  0.689500  0.187300  0.373600 1.000000 Biso 1.000000
C56  C  0.662700  0.242900  0.290600 1.000000 Biso 1.000000
H28  H  0.712700  0.176500  0.410900 1.000000 Biso 1.000000
O29  O  0.566700  0.641400  0.926990 1.000000 Biso 1.000000
S29  S  0.711500  0.604520  0.813960 1.000000 Biso 1.000000
C57  C  0.626400  0.689500  0.812700 1.000000 Biso 1.000000
C58  C  0.709400  0.662700  0.757100 1.000000 Biso 1.000000
H29  H  0.589100  0.712700  0.823500 1.000000 Biso 1.000000
O30  O  0.566700  0.358600  0.073010 1.000000 Biso 1.000000
S30  S  0.711500  0.395480  0.186040 1.000000 Biso 1.000000
C59  C  0.626400  0.310500  0.187300 1.000000 Biso 1.000000
C60  C  0.709400  0.337300  0.242900 1.000000 Biso 1.000000
H30  H  0.589100  0.287300  0.176500 1.000000 Biso 1.000000
O31  O  0.433300  0.358600  0.926990 1.000000 Biso 1.000000
S31  S  0.288500  0.395480  0.813960 1.000000 Biso 1.000000
C61  C  0.373600  0.310500  0.812700 1.000000 Biso 1.000000
C62  C  0.290600  0.337300  0.757100 1.000000 Biso 1.000000
H31  H  0.410900  0.287300  0.823500 1.000000 Biso 1.000000
O32  O  0.433300  0.641400  0.073010 1.000000 Biso 1.000000
S32  S  0.288500  0.604520  0.186040 1.000000 Biso 1.000000
C63  C  0.373600  0.689500  0.187300 1.000000 Biso 1.000000
C64  C  0.290600  0.662700  0.242900 1.000000 Biso 1.000000
H32  H  0.410900  0.712700  0.176500 1.000000 Biso 1.000000
O33  O  0.926990  0.566700  0.641400 1.000000 Biso 1.000000
S33  S  0.813960  0.711500  0.604520 1.000000 Biso 1.000000
C65  C  0.812700  0.626400  0.689500 1.000000 Biso 1.000000
C66  C  0.757100  0.709400  0.662700 1.000000 Biso 1.000000
H33  H  0.823500  0.589100  0.712700 1.000000 Biso 1.000000
O34  O  0.073010  0.566700  0.358600 1.000000 Biso 1.000000
S34  S  0.186040  0.711500  0.395480 1.000000 Biso 1.000000
C67  C  0.187300  0.626400  0.310500 1.000000 Biso 1.000000
C68  C  0.242900  0.709400  0.337300 1.000000 Biso 1.000000
H34  H  0.176500  0.589100  0.287300 1.000000 Biso 1.000000
O35  O  0.926990  0.433300  0.358600 1.000000 Biso 1.000000
S35  S  0.813960  0.288500  0.395480 1.000000 Biso 1.000000
C69  C  0.812700  0.373600  0.310500 1.000000 Biso 1.000000
C70  C  0.757100  0.290600  0.337300 1.000000 Biso 1.000000
H35  H  0.823500  0.410900  0.287300 1.000000 Biso 1.000000
O36  O  0.073010  0.433300  0.641400 1.000000 Biso 1.000000
S36  S  0.186040  0.288500  0.604520 1.000000 Biso 1.000000
C71  C  0.187300  0.373600  0.689500 1.000000 Biso 1.000000
C72  C  0.242900  0.290600  0.662700 1.000000 Biso 1.000000
H36  H  0.176500  0.410900  0.712700 1.000000 Biso 1.000000
O37  O  0.926990  0.641400  0.433300 1.000000 Biso 1.000000
S37  S  0.813960  0.604520  0.288500 1.000000 Biso 1.000000
C73  C  0.812700  0.689500  0.373600 1.000000 Biso 1.000000
C74  C  0.757100  0.662700  0.290600 1.000000 Biso 1.000000
H37  H  0.823500  0.712700  0.410900 1.000000 Biso 1.000000
O38  O  0.073010  0.358600  0.433300 1.000000 Biso 1.000000
S38  S  0.186040  0.395480  0.288500 1.000000 Biso 1.000000
C75  C  0.187300  0.310500  0.373600 1.000000 Biso 1.000000
C76  C  0.242900  0.337300  0.290600 1.000000 Biso 1.000000
H38  H  0.176500  0.287300  0.410900 1.000000 Biso 1.000000
O39  O  0.926990  0.358600  0.566700 1.000000 Biso 1.000000
S39  S  0.813960  0.395480  0.711500 1.000000 Biso 1.000000
C77  C  0.812700  0.310500  0.626400 1.000000 Biso 1.000000
C78  C  0.757100  0.337300  0.709400 1.000000 Biso 1.000000
H39  H  0.823500  0.287300  0.589100 1.000000 Biso 1.000000
O40  O  0.073010  0.641400  0.566700 1.000000 Biso 1.000000
S40  S  0.186040  0.604520  0.711500 1.000000 Biso 1.000000
C79  C  0.187300  0.689500  0.626400 1.000000 Biso 1.000000
C80  C  0.242900  0.662700  0.709400 1.000000 Biso 1.000000
H40  H  0.176500  0.712700  0.589100 1.000000 Biso 1.000000
O41  O  0.641400  0.566700  0.073010 1.000000 Biso 1.000000
S41  S  0.604520  0.711500  0.186040 1.000000 Biso 1.000000
C81  C  0.689500  0.626400  0.187300 1.000000 Biso 1.000000
C82  C  0.662700  0.709400  0.242900 1.000000 Biso 1.000000
H41  H  0.712700  0.589100  0.176500 1.000000 Biso 1.000000
O42  O  0.358600  0.566700  0.926990 1.000000 Biso 1.000000
S42  S  0.395480  0.711500  0.813960 1.000000 Biso 1.000000
C83  C  0.310500  0.626400  0.812700 1.000000 Biso 1.000000
C84  C  0.337300  0.709400  0.757100 1.000000 Biso 1.000000
H42  H  0.287300  0.589100  0.823500 1.000000 Biso 1.000000
O43  O  0.358600  0.433300  0.073010 1.000000 Biso 1.000000
S43  S  0.395480  0.288500  0.186040 1.000000 Biso 1.000000
C85  C  0.310500  0.373600  0.187300 1.000000 Biso 1.000000
C86  C  0.337300  0.290600  0.242900 1.000000 Biso 1.000000
H43  H  0.287300  0.410900  0.176500 1.000000 Biso 1.000000
O44  O  0.641400  0.433300  0.926990 1.000000 Biso 1.000000
S44  S  0.604520  0.288500  0.813960 1.000000 Biso 1.000000
C87  C  0.689500  0.373600  0.812700 1.000000 Biso 1.000000
C88  C  0.662700  0.290600  0.757100 1.000000 Biso 1.000000
H44  H  0.712700  0.410900  0.823500 1.000000 Biso 1.000000
O45  O  0.566700  0.926990  0.358600 1.000000 Biso 1.000000
S45  S  0.711500  0.813960  0.395480 1.000000 Biso 1.000000
C89  C  0.626400  0.812700  0.310500 1.000000 Biso 1.000000
C90  C  0.709400  0.757100  0.337300 1.000000 Biso 1.000000
H45  H  0.589100  0.823500  0.287300 1.000000 Biso 1.000000
O46  O  0.566700  0.073010  0.641400 1.000000 Biso 1.000000
S46  S  0.711500  0.186040  0.604520 1.000000 Biso 1.000000
C91  C  0.626400  0.187300  0.689500 1.000000 Biso 1.000000
C92  C  0.709400  0.242900  0.662700 1.000000 Biso 1.000000
H46  H  0.589100  0.176500  0.712700 1.000000 Biso 1.000000
O47  O  0.433300  0.926990  0.641400 1.000000 Biso 1.000000
S47  S  0.288500  0.813960  0.604520 1.000000 Biso 1.000000
C93  C  0.373600  0.812700  0.689500 1.000000 Biso 1.000000
C94  C  0.290600  0.757100  0.662700 1.000000 Biso 1.000000
H47  H  0.410900  0.823500  0.712700 1.000000 Biso 1.000000
O48  O  0.433300  0.073010  0.358600 1.000000 Biso 1.000000
S48  S  0.288500  0.186040  0.395480 1.000000 Biso 1.000000
C95  C  0.373600  0.187300  0.310500 1.000000 Biso 1.000000
C96  C  0.290600  0.242900  0.337300 1.000000 Biso 1.000000
H48  H  0.410900  0.176500  0.287300 1.000000 Biso 1.000000
Mn1  Mn  0.365410  0.000000  0.500000 1.000000 Biso 1.000000
Mn2  Mn  0.634590  0.000000  0.500000 1.000000 Biso 1.000000
Mn3  Mn  0.500000  0.365410  0.000000 1.000000 Biso 1.000000
Mn4  Mn  0.500000  0.634590  0.000000 1.000000 Biso 1.000000
Mn5  Mn  0.000000  0.500000  0.365410 1.000000 Biso 1.000000
Mn6  Mn  0.000000  0.500000  0.634590 1.000000 Biso 1.000000
Mn7  Mn  0.000000  0.365410  0.500000 1.000000 Biso 1.000000
Mn8  Mn  0.000000  0.634590  0.500000 1.000000 Biso 1.000000
Mn9  Mn  0.365410  0.500000  0.000000 1.000000 Biso 1.000000
Mn10  Mn  0.634590  0.500000  0.000000 1.000000 Biso 1.000000
Mn11  Mn  0.500000  0.000000  0.634590 1.000000 Biso 1.000000
Mn12  Mn  0.500000  0.000000  0.365410 1.000000 Biso 1.000000
C97  C  0.385400  0.094500  0.385400 1.000000 Biso 1.000000
C98  C  0.357500  0.153600  0.357500 1.000000 Biso 1.000000
C99  C  0.614600  0.905500  0.385400 1.000000 Biso 1.000000
C100  C  0.642500  0.846400  0.357500 1.000000 Biso 1.000000
C101  C  0.614600  0.094500  0.614600 1.000000 Biso 1.000000
C102  C  0.642500  0.153600  0.642500 1.000000 Biso 1.000000
C103  C  0.385400  0.905500  0.614600 1.000000 Biso 1.000000
C104  C  0.357500  0.846400  0.642500 1.000000 Biso 1.000000
C105  C  0.385400  0.385400  0.094500 1.000000 Biso 1.000000
C106  C  0.357500  0.357500  0.153600 1.000000 Biso 1.000000
C107  C  0.385400  0.614600  0.905500 1.000000 Biso 1.000000
C108  C  0.357500  0.642500  0.846400 1.000000 Biso 1.000000
C109  C  0.614600  0.614600  0.094500 1.000000 Biso 1.000000
C110  C  0.642500  0.642500  0.153600 1.000000 Biso 1.000000
C111  C  0.614600  0.385400  0.905500 1.000000 Biso 1.000000
C112  C  0.642500  0.357500  0.846400 1.000000 Biso 1.000000
C113  C  0.094500  0.385400  0.385400 1.000000 Biso 1.000000
C114  C  0.153600  0.357500  0.357500 1.000000 Biso 1.000000
C115  C  0.905500  0.385400  0.614600 1.000000 Biso 1.000000
C116  C  0.846400  0.357500  0.642500 1.000000 Biso 1.000000
C117  C  0.094500  0.614600  0.614600 1.000000 Biso 1.000000
C118  C  0.153600  0.642500  0.642500 1.000000 Biso 1.000000
C119  C  0.905500  0.614600  0.385400 1.000000 Biso 1.000000
C120  C  0.846400  0.642500  0.357500 1.000000 Biso 1.000000
C121  C  0.094500  0.385400  0.614600 1.000000 Biso 1.000000
C122  C  0.153600  0.357500  0.642500 1.000000 Biso 1.000000
C123  C  0.905500  0.614600  0.614600 1.000000 Biso 1.000000
C124  C  0.846400  0.642500  0.642500 1.000000 Biso 1.000000
C125  C  0.094500  0.614600  0.385400 1.000000 Biso 1.000000
C126  C  0.153600  0.642500  0.357500 1.000000 Biso 1.000000
C127  C  0.905500  0.385400  0.385400 1.000000 Biso 1.000000
C128  C  0.846400  0.357500  0.357500 1.000000 Biso 1.000000
C129  C  0.385400  0.385400  0.905500 1.000000 Biso 1.000000
C130  C  0.357500  0.357500  0.846400 1.000000 Biso 1.000000
C131  C  0.614600  0.385400  0.094500 1.000000 Biso 1.000000
C132  C  0.642500  0.357500  0.153600 1.000000 Biso 1.000000
C133  C  0.614600  0.614600  0.905500 1.000000 Biso 1.000000
C134  C  0.642500  0.642500  0.846400 1.000000 Biso 1.000000
C135  C  0.385400  0.614600  0.094500 1.000000 Biso 1.000000
C136  C  0.357500  0.642500  0.153600 1.000000 Biso 1.000000
C137  C  0.385400  0.094500  0.614600 1.000000 Biso 1.000000
C138  C  0.357500  0.153600  0.642500 1.000000 Biso 1.000000
C139  C  0.385400  0.905500  0.385400 1.000000 Biso 1.000000
C140  C  0.357500  0.846400  0.357500 1.000000 Biso 1.000000
C141  C  0.614600  0.094500  0.385400 1.000000 Biso 1.000000
C142  C  0.642500  0.153600  0.357500 1.000000 Biso 1.000000
C143  C  0.614600  0.905500  0.614600 1.000000 Biso 1.000000
C144  C  0.642500  0.846400  0.642500 1.000000 Biso 1.000000
