data_VANRAH_cleanP4/mmm
# Symmetrized structure with precision = 1e-10
_cell_length_a                  7.2102
_cell_length_b                  7.2102
_cell_length_c                  7.1308
_cell_angle_alpha               90
_cell_angle_beta                90
_cell_angle_gamma               90
_symmetry_space_group_name_H-M  'P4/mmm'
_symmetry_Int_Tables_number     123

loop_
_atom_site_label
_atom_site_type_symbol
_atom_site_occupancy
_atom_site_fract_x
_atom_site_fract_y
_atom_site_fract_z
Ni Ni 1.0 0.0000000 0.0000000 0.5000000
C C 1.0 0.5000000 0.3445000 0.0954000
Co Co 1.0 0.5000000 0.5000000 0.5000000
N N 1.0 0.2946000 0.2946000 0.5000000
N N 1.0 0.5000000 0.5000000 0.1938000
C C 1.0 0.1835000 0.1835000 0.5000000
