data_XUJCUB_cleanC2/c
# Symmetrized structure with precision = 1e-10
_cell_length_a                  9.288839
_cell_length_b                  12.89494
_cell_length_c                  6.3072
_cell_angle_alpha               90
_cell_angle_beta                92.47993
_cell_angle_gamma               90
_symmetry_space_group_name_H-M  'C2/c'
_symmetry_Int_Tables_number     15

loop_
_atom_site_label
_atom_site_type_symbol
_atom_site_occupancy
_atom_site_fract_x
_atom_site_fract_y
_atom_site_fract_z
Ni1 Ni 1.0 0.5000000 0.5727500 0.7500000
H1 H 1.0 0.1400000 0.1380000 0.0350000
H2 H 1.0 0.3000000 0.2100000 0.7240000
H3 H 1.0 0.3270000 0.1020000 0.8280000
H4 H 1.0 0.5060000 0.7790000 0.0260000
H5 H 1.0 0.6070000 0.8200000 0.8450000
C1 C 1.0 0.2958000 0.1723000 0.8566000
C2 C 1.0 0.6032000 0.7797000 0.9744000
N1 N 1.0 0.6443000 0.6719100 0.9222000
Cl1 Cl 1.0 0.8562500 0.0675700 0.0656300
