data_YUZJOU_cleanP4/ncc
# Symmetrized structure with precision = 1e-10
_cell_length_a                  11.4766
_cell_length_b                  11.4766
_cell_length_c                  30.5554
_cell_angle_alpha               90
_cell_angle_beta                90
_cell_angle_gamma               90
_symmetry_space_group_name_H-M  'P4/ncc'
_symmetry_Int_Tables_number     130

loop_
_atom_site_label
_atom_site_type_symbol
_atom_site_occupancy
_atom_site_fract_x
_atom_site_fract_y
_atom_site_fract_z
C1 C 1.0 0.3507000 0.7676000 0.3285100
H1 H 1.0 0.3509000 0.8503000 0.3272000
C2 C 1.0 0.1576000 0.7202000 0.4276000
H2 H 1.0 0.1487000 0.6379000 0.4268000
C3 C 1.0 0.0992000 0.7844000 0.4582400
H3 H 1.0 0.0510000 0.7441000 0.4785000
N1 N 1.0 0.1058000 0.9010000 0.4615500
C4 C 1.0 0.4073000 0.7048000 0.2970000
H4 H 1.0 0.4454000 0.7458000 0.2741000
N2 N 1.0 0.4115000 0.5883000 0.2969500
C5 C 1.0 0.2940000 0.5900000 0.3616200
H5 H 1.0 0.2540000 0.5467000 0.3834000
C6 C 1.0 0.1789000 0.9521000 0.4337100
H6 H 1.0 0.1895000 0.0339000 0.4361000
C7 C 1.0 0.2398000 0.8943000 0.4018300
H7 H 1.0 0.2890000 0.9370000 0.3826000
C8 C 1.0 0.2309000 0.7761000 0.3971900
C9 C 1.0 0.3539000 0.5329000 0.3286200
H8 H 1.0 0.3539000 0.4502000 0.3285000
C10 C 1.0 0.2928000 0.7115000 0.3625600
Cu1 Cu 1.0 0.0000000 0.0000000 0.5000000
Cu2 Cu 1.0 0.5000000 0.5000000 0.2500000
